[General]
network = veins.examples.Scenario
sim-time-limit = 100s

*.manager.launchConfig = xmldoc("test1.sumo.cfg")
*.manager.moduleType = "veins::Car"
*.manager.host = "localhost"
*.manager.port = 9999

*.playgroundSizeX = 500
*.playgroundSizeY = 500
