<?xml version="1.0" encoding="UTF-8"?>

<!-- generated on 2025-06-07 13:57:49 by Eclipse SUMO netedit Version 1.20.0
<configuration xmlns:xsi="http://www.w3.org/2001/XMLSchema-instance" xsi:noNamespaceSchemaLocation="http://sumo.dlr.de/xsd/neteditConfiguration.xsd">

    <input>
        <sumocfg-file value="C:\Users\othma\OneDrive\Bureau\Test SUMO Veiuns\osm.sumocfg"/>
        <route-files value="C:\Users\othma\OneDrive\Bureau\Test SUMO Veiuns\osm.rou.xml"/>
        <sumo-net-file value="C:\Users\othma\OneDrive\Bureau\Test SUMO Veiuns\osm.net.xml"/>
    </input>

    <output>
        <output-file value="C:\Users\othma\OneDrive\Bureau\Test SUMO Veiuns\osm.net.xml"/>
    </output>

    <processing>
        <offset.disable-normalization value="true"/>
    </processing>

    <junctions>
        <no-turnarounds value="true"/>
    </junctions>

    <netedit>
        <new-network value="false"/>
    </netedit>

</configuration>
-->

<net version="1.20" junctionCornerDetail="5" limitTurnSpeed="5.50" xmlns:xsi="http://www.w3.org/2001/XMLSchema-instance" xsi:noNamespaceSchemaLocation="http://sumo.dlr.de/xsd/net_file.xsd">

    <location netOffset="0.00,0.00" convBoundary="-387.10,-94.23,141.38,202.63" origBoundary="10000000000.00,10000000000.00,-10000000000.00,-10000000000.00" projParameter="!"/>

    <edge id=":J3_0" function="internal">
        <lane id=":J3_0_0" index="0" speed="13.89" length="0.31" shape="-172.28,57.68 -172.28,57.37"/>
    </edge>
    <edge id=":J3_1" function="internal">
        <lane id=":J3_1_0" index="0" speed="13.89" length="0.29" shape="-169.08,57.37 -169.08,57.66"/>
    </edge>

    <edge id="-E0" from="J1" to="J0" priority="-1">
        <lane id="-E0_0" index="0" speed="13.89" length="528.49" shape="-387.11,57.02 141.37,53.71"/>
    </edge>
    <edge id="-E1" from="J3" to="J2" priority="-1">
        <lane id="-E1_0" index="0" speed="13.89" length="144.97" shape="-169.08,57.66 -167.97,202.62"/>
    </edge>
    <edge id="-E2" from="J4" to="J3" priority="-1">
        <lane id="-E2_0" index="0" speed="13.89" length="151.60" shape="-169.35,-94.23 -169.08,57.37"/>
    </edge>
</net>
