<?xml version="1.0" encoding="UTF-8"?>

<!-- generated on 2025-05-06 12:16:41 by Eclipse SUMO netedit Version 1.11.0
-->

<routes xmlns:xsi="http://www.w3.org/2001/XMLSchema-instance" xsi:noNamespaceSchemaLocation="http://sumo.dlr.de/xsd/routes_file.xsd">
    <trip id="v0" depart="0.00" from="E1" to="-E00"/>
    <trip id="v1" depart="0.00" from="E1" to="E0.48"/>
    <trip id="v2" depart="0.00" from="E0" to="E0.48"/>
</routes>
