<?xml version="1.0" encoding="UTF-8"?>

<!-- generated on 2025-05-06 12:16:48 by Eclipse SUMO netedit Version 1.11.0
<configuration xmlns:xsi="http://www.w3.org/2001/XMLSchema-instance" xsi:noNamespaceSchemaLocation="http://sumo.dlr.de/xsd/netconvertConfiguration.xsd">

    <output>
        <output-file value="/home/veins/Documents/simulation2/traci.net.xml"/>
    </output>

    <processing>
        <offset.disable-normalization value="true"/>
    </processing>

    <junctions>
        <no-turnarounds value="true"/>
    </junctions>

    <netedit>
        <route-files value="/home/veins/Documents/simulation2/traci.rou.xml"/>
    </netedit>

    <report>
        <aggregate-warnings value="5"/>
    </report>

</configuration>
-->

<net version="1.9" junctionCornerDetail="5" limitTurnSpeed="5.50" xmlns:xsi="http://www.w3.org/2001/XMLSchema-instance" xsi:noNamespaceSchemaLocation="http://sumo.dlr.de/xsd/net_file.xsd">

    <location netOffset="0.00,0.00" convBoundary="-5.27,31.24,92.32,69.69" origBoundary="10000000000.00,10000000000.00,-10000000000.00,-10000000000.00" projParameter="!"/>

    <edge id=":J2_0" function="internal">
        <lane id=":J2_0_0" index="0" speed="13.89" length="11.20" shape="50.91,71.14 39.71,71.17"/>
    </edge>
    <edge id=":J2_1" function="internal">
        <lane id=":J2_1_0" index="0" speed="6.43" length="9.03" shape="45.42,62.30 45.70,64.77 46.70,66.54 48.44,67.59 50.90,67.94"/>
    </edge>
    <edge id=":J2_2" function="internal">
        <lane id=":J2_2_0" index="0" speed="7.43" length="11.76" shape="45.42,62.30 44.96,66.18 43.85,68.95 42.10,70.61 39.71,71.17"/>
    </edge>
    <edge id=":J2_3" function="internal">
        <lane id=":J2_3_0" index="0" speed="13.89" length="11.20" shape="39.70,67.97 50.90,67.94"/>
    </edge>

    <edge id="-E0" from="J1" to="J2" priority="-1">
        <lane id="-E0_0" index="0" speed="13.89" length="41.42" shape="92.33,71.03 50.91,71.14"/>
    </edge>
    <edge id="-E00" from="J2" to="J0" priority="-1">
        <lane id="-E00_0" index="0" speed="13.89" length="44.98" shape="39.71,71.17 -5.27,71.29"/>
    </edge>
    <edge id="E0" from="J0" to="J2" priority="-1">
        <lane id="E0_0" index="0" speed="13.89" length="44.98" shape="-5.28,68.09 39.70,67.97"/>
    </edge>
    <edge id="E0.48" from="J2" to="J1" priority="-1">
        <lane id="E0.48_0" index="0" speed="13.89" length="41.42" shape="50.90,67.94 92.32,67.83"/>
    </edge>
    <edge id="E1" from="J3" to="J2" priority="-1">
        <lane id="E1_0" index="0" speed="13.89" length="31.03" shape="46.39,31.29 45.42,62.30"/>
    </edge>

    <tlLogic id="J2" type="static" programID="0" offset="0">
        <phase duration="42" state="GrrG"/>
        <phase duration="3"  state="yrry"/>
        <phase duration="42" state="rGGr"/>
        <phase duration="3"  state="ryyr"/>
    </tlLogic>

    <junction id="J0" type="dead_end" x="-5.27" y="69.69" incLanes="-E00_0" intLanes="" shape="-5.27,69.69 -5.26,72.89 -5.27,69.69"/>
    <junction id="J1" type="dead_end" x="92.32" y="69.43" incLanes="E0.48_0" intLanes="" shape="92.32,69.43 92.31,66.23 92.32,69.43"/>
    <junction id="J2" type="traffic_light" x="43.59" y="69.56" incLanes="-E0_0 E1_0 E0_0" intLanes=":J2_0_0 :J2_1_0 :J2_2_0 :J2_3_0" shape="50.91,72.74 50.90,66.34 48.69,65.90 47.93,65.35 47.40,64.57 47.09,63.57 47.02,62.35 43.82,62.25 43.31,64.53 42.73,65.33 41.93,65.91 40.92,66.25 39.69,66.37 39.71,72.77">
        <request index="0" response="0000" foes="0100" cont="0"/>
        <request index="1" response="1000" foes="1000" cont="0"/>
        <request index="2" response="1001" foes="1001" cont="0"/>
        <request index="3" response="0000" foes="0110" cont="0"/>
    </junction>
    <junction id="J3" type="dead_end" x="44.79" y="31.24" incLanes="" intLanes="" shape="44.79,31.24 47.99,31.34"/>

    <connection from="-E0" to="-E00" fromLane="0" toLane="0" via=":J2_0_0" tl="J2" linkIndex="0" dir="s" state="O"/>
    <connection from="E0" to="E0.48" fromLane="0" toLane="0" via=":J2_3_0" tl="J2" linkIndex="3" dir="s" state="O"/>
    <connection from="E1" to="E0.48" fromLane="0" toLane="0" via=":J2_1_0" tl="J2" linkIndex="1" dir="r" state="o"/>
    <connection from="E1" to="-E00" fromLane="0" toLane="0" via=":J2_2_0" tl="J2" linkIndex="2" dir="l" state="o"/>

    <connection from=":J2_0" to="-E00" fromLane="0" toLane="0" dir="s" state="M"/>
    <connection from=":J2_1" to="E0.48" fromLane="0" toLane="0" dir="r" state="M"/>
    <connection from=":J2_2" to="-E00" fromLane="0" toLane="0" dir="l" state="M"/>
    <connection from=":J2_3" to="E0.48" fromLane="0" toLane="0" dir="s" state="M"/>

</net>
