<?xml version="1.0" encoding="UTF-8"?>

<!-- generated on 2025-05-06 07:42:27 by Eclipse SUMO netedit Version 1.11.0
<configuration xmlns:xsi="http://www.w3.org/2001/XMLSchema-instance" xsi:noNamespaceSchemaLocation="http://sumo.dlr.de/xsd/netconvertConfiguration.xsd">

    <output>
        <output-file value="/home/veins/Documents/traciproject/traci.net.xml"/>
    </output>

    <processing>
        <offset.disable-normalization value="true"/>
    </processing>

    <junctions>
        <no-turnarounds value="true"/>
    </junctions>

    <netedit>
        <route-files value="/home/veins/Documents/traciproject/traci.rou.xml"/>
    </netedit>

    <report>
        <aggregate-warnings value="5"/>
    </report>

</configuration>
-->

<net version="1.9" junctionCornerDetail="5" limitTurnSpeed="5.50" xmlns:xsi="http://www.w3.org/2001/XMLSchema-instance" xsi:noNamespaceSchemaLocation="http://sumo.dlr.de/xsd/net_file.xsd">

    <location netOffset="0.00,0.00" convBoundary="-0.41,22.48,98.23,56.27" origBoundary="10000000000.00,10000000000.00,-10000000000.00,-10000000000.00" projParameter="!"/>

    <edge id=":J2_0" function="internal">
        <lane id=":J2_0_0" index="0" speed="13.89" length="11.20" shape="59.46,57.81 48.26,57.80"/>
    </edge>
    <edge id=":J2_1" function="internal">
        <lane id=":J2_1_0" index="0" speed="6.45" length="9.03" shape="53.99,48.96 54.27,51.43 55.28,53.20 57.01,54.26 59.47,54.61"/>
    </edge>
    <edge id=":J2_2" function="internal">
        <lane id=":J2_2_0" index="0" speed="7.40" length="11.75" shape="53.99,48.96 53.53,52.83 52.43,55.59 50.67,57.25 48.26,57.80"/>
    </edge>
    <edge id=":J2_3" function="internal">
        <lane id=":J2_3_0" index="0" speed="13.89" length="11.20" shape="48.27,54.60 59.47,54.61"/>
    </edge>

    <edge id="-E0" from="J1" to="J2" priority="-1">
        <lane id="-E0_0" index="0" speed="13.89" length="38.76" shape="98.23,57.87 59.46,57.81"/>
    </edge>
    <edge id="-E0.46" from="J2" to="J0" priority="-1">
        <lane id="-E0.46_0" index="0" speed="13.89" length="48.67" shape="48.26,57.80 -0.41,57.73"/>
    </edge>
    <edge id="E0" from="J0" to="J2" priority="-1">
        <lane id="E0_0" index="0" speed="13.89" length="48.67" shape="-0.41,54.53 48.27,54.60"/>
    </edge>
    <edge id="E00" from="J2" to="J1" priority="-1">
        <lane id="E00_0" index="0" speed="13.89" length="38.76" shape="59.47,54.61 98.23,54.67"/>
    </edge>
    <edge id="E1" from="J3" to="J2" priority="-1">
        <lane id="E1_0" index="0" speed="13.89" length="26.45" shape="54.73,22.52 53.99,48.96"/>
    </edge>

    <junction id="J0" type="dead_end" x="-0.41" y="56.13" incLanes="-E0.46_0" intLanes="" shape="-0.41,56.13 -0.41,59.33 -0.41,56.13"/>
    <junction id="J1" type="dead_end" x="98.23" y="56.27" incLanes="E00_0" intLanes="" shape="98.23,56.27 98.23,53.07 98.23,56.27"/>
    <junction id="J2" type="priority" x="52.18" y="56.20" incLanes="-E0_0 E1_0 E0_0" intLanes=":J2_0_0 :J2_1_0 :J2_2_0 :J2_3_0" shape="59.46,59.41 59.47,53.01 57.26,52.57 56.50,52.01 55.97,51.23 55.66,50.23 55.58,49.01 52.39,48.92 51.88,51.19 51.30,51.98 50.51,52.55 49.50,52.89 48.27,53.00 48.26,59.40">
        <request index="0" response="0000" foes="0100" cont="0"/>
        <request index="1" response="1000" foes="1000" cont="0"/>
        <request index="2" response="1001" foes="1001" cont="0"/>
        <request index="3" response="0000" foes="0110" cont="0"/>
    </junction>
    <junction id="J3" type="dead_end" x="53.13" y="22.48" incLanes="" intLanes="" shape="53.13,22.48 56.33,22.57"/>

    <connection from="-E0" to="-E0.46" fromLane="0" toLane="0" via=":J2_0_0" dir="s" state="M"/>
    <connection from="E0" to="E00" fromLane="0" toLane="0" via=":J2_3_0" dir="s" state="M"/>
    <connection from="E1" to="E00" fromLane="0" toLane="0" via=":J2_1_0" dir="r" state="m"/>
    <connection from="E1" to="-E0.46" fromLane="0" toLane="0" via=":J2_2_0" dir="l" state="m"/>

    <connection from=":J2_0" to="-E0.46" fromLane="0" toLane="0" dir="s" state="M"/>
    <connection from=":J2_1" to="E00" fromLane="0" toLane="0" dir="r" state="M"/>
    <connection from=":J2_2" to="-E0.46" fromLane="0" toLane="0" dir="l" state="M"/>
    <connection from=":J2_3" to="E00" fromLane="0" toLane="0" dir="s" state="M"/>

</net>
