<?xml version="1.0" encoding="UTF-8"?>

<!-- generated on 2025-06-27 16:49:57.630277 by randomTrips.py v1_22_0+0002-63e50f52594
<configuration>
    <net-file value="map.net.xml"/>
    <route-file value="map.rou.xml"/>
    <length value="True"/>
    <end value="100.0"/>
</configuration>
-->

<!-- generated on 2025-06-27 16:49:57 by Eclipse SUMO duarouter Version 1.22.0
<duarouterConfiguration xmlns:xsi="http://www.w3.org/2001/XMLSchema-instance" xsi:noNamespaceSchemaLocation="http://sumo.dlr.de/xsd/duarouterConfiguration.xsd">

    <input>
        <net-file value="map.net.xml"/>
        <route-files value="trips.trips.xml"/>
    </input>

    <output>
        <output-file value="map.rou.xml"/>
        <alternatives-output value="NUL"/>
    </output>

    <time>
        <begin value="0"/>
        <end value="100.0"/>
    </time>

    <report>
        <no-warnings value="true"/>
        <ignore-errors value="true"/>
        <no-step-log value="true"/>
    </report>

</duarouterConfiguration>
-->

<routes xmlns:xsi="http://www.w3.org/2001/XMLSchema-instance" xsi:noNamespaceSchemaLocation="http://sumo.dlr.de/xsd/routes_file.xsd">
    <vehicle id="0" depart="0.00">
        <route edges="4447063#6 4447063#7 4447063#8 537495962#0 537495962#1 537495962#2 538082811#7 538082811#8 538082811#9 538082811#10 538082811#11 523389756#0 523389756#1 523389756#2 523389756#3 4447087#0 4447087#1 4447087#2 4447087#3 4447087#4 4447087#5 648289151#0 648289151#1 648289151#2 648289151#3 164286214#0 164286214#1 164286214#2 164286214#3 164286214#4 164286214#5 164286214#6 164286214#7 264313540#0 264313540#1 264313540#2 264313540#3 264313540#4 264313540#5 264313540#6 -1320186868#6 -1320186868#5 -1320186868#4 -1320186868#3 -4450703#0 -1310896363#3 -1310896363#2"/>
    </vehicle>
    <vehicle id="1" depart="1.00">
        <route edges="122617720#9 122617720#10 122617720#11 538082811#1 538082811#2 538082811#3 538082811#4 538082811#5 538082811#6 538082811#7 538082811#8 538082811#9 538082811#10 538082811#11 523389756#0 523389756#1 523389756#2 523389756#3 4447087#0 4447087#1 4447087#2 4447087#3 4447087#4 4447087#5 648289151#0 648289151#1 648289151#2 648289151#3 164286214#0 164286214#1 164286214#2 164286214#3 164286214#4 164286214#5 164286214#6 164286214#7 24038185#16 24038185#17 24038185#18 -977539434#5 -977539434#4 -977539434#3 -977539434#2 -977539434#1 -977539434#0 -519905875#3 -519905875#2 -519905875#1"/>
    </vehicle>
    <vehicle id="2" depart="2.00">
        <route edges="4453443#1 4453443#2 4453443#3 -1290939474#1 -1290939474#0 -648289151#3 -648289151#2 -648289151#1 -648289151#0 -4447087#5 -4447087#4 -4447087#3 -4447087#2 -4447087#1 -4447087#0 523389755#0 523389755#1 523389755#2 538082811#15 4444146#0 4444146#1 4444146#2 4447068#0 4447068#1"/>
    </vehicle>
    <vehicle id="3" depart="3.00">
        <route edges="538082812#6 -538082812#6 -538082812#5 -538082812#4 -538082812#3 -538082812#2 -538082812#1 -538082812#0 -264313540#6 -264313540#5 -264313540#4 -264313540#3 -264313540#2 -264313540#1 -264313540#0 -164286214#7 -164286214#6 -164286214#5 -164286214#4 -164286214#3 -164286214#2 -164286214#1 -164286214#0 -648289151#3 -648289151#2 -648289151#1 -648289151#0 -4447087#5 -4447087#4 4447075#0 4447075#1 4447075#2 4447075#3 4447075#4 4447075#5 4447075#6 -231373089#4 -231373089#3 -231373089#2 -231373089#1"/>
    </vehicle>
    <vehicle id="4" depart="4.00">
        <route edges="24017674#1 791022796#2 53746251#1 53746251#2 53746251#3 53746251#4 53746251#5 53746251#6 53746251#7 53746251#8 53746251#9 538082811#9 538082811#10 538082811#11 523389756#0 523389756#1 523389756#2 523389756#3 4447087#0 4447087#1 4447087#2 4447087#3 4447087#4 4447087#5 648289151#0 648289151#1 648289151#2 648289151#3 164286214#0 164286214#1 164286214#2 164286214#3 164286214#4 164286214#5 164286214#6 164286214#7 264313540#0 264313540#1 264313540#2 264313540#3 264313540#4 264313540#5 264313540#6 -1320186868#6 -1320186868#5 -1320186868#4 -1320186868#3 -4450703#0 -1310896363#3 -1310896363#2"/>
    </vehicle>
    <vehicle id="5" depart="5.00">
        <route edges="-602904955#0 -27600643#1 -27600643#0 4472336#0 4472336#1 4472336#2 4472336#3 537495962#0 537495962#1 537495962#2 538082811#7 538082811#8 538082811#9 538082811#10 538082811#11 523389756#0 523389756#1 523389756#2 95500953#0 95500953#1 95500953#2 -4039139#1 -4039139#0 34378204#0 34378204#1 34378204#2 34378204#3 25467965#0 25467965#1 25467965#2"/>
    </vehicle>
    <vehicle id="6" depart="6.00">
        <route edges="-1310896363#2 -1310896363#1 -1310896363#0 -68951253#1 318523942#1 318523942#2 318523942#3 4453430#1 1310896019#0 1310896019#1 1310896019#2 27281303#0 27281303#1 27281303#2 -4450705#4 -264313540#3 -264313540#2 -264313540#1 -264313540#0 -164286214#7 -164286214#6 -164286214#5 -164286214#4 -164286214#3 -164286214#2 -164286214#1 -164286214#0 -1290939473#1 -1290939473#0 -370683936 -122617737#2 -122617737#1 -122617737#0 580067988#0 580067988#1 580067988#2 580067988#3 -4447068#3 -4447068#2 -4447068#1"/>
    </vehicle>
    <vehicle id="7" depart="7.00">
        <route edges="4447065#14 4447065#15 4447065#16 4447065#17 4447065#18 4447065#19 52073596#0 52073596#1 52073596#2 52073596#3 52073596#4 52073596#5 52073595#0 52073595#1 52073595#2 52073595#3 52073595#4 538082811#10 538082811#11 538082811#12 538082811#13 538082811#14 538082811#15 538082811#0 538082811#1 538082811#2 538082811#3 537495969#0 537495969#1 537495969#2 -52073597#4 -52073597#3 -52073597#2 -52073597#1 -52073597#0 -1231728267 8412462#0 8412462#1 8412462#2 8412462#3 27600218#0 27600218#1"/>
    </vehicle>
    <vehicle id="8" depart="8.00">
        <route edges="-602904955#2 -602904955#1 -602904955#0 -27600643#1 -27600643#0 4472336#0 4472336#1 4472336#2 4472336#3 537495962#0 537495962#1 537495962#2 538082811#7 538082811#8 538082811#9 538082811#10 538082811#11 523389756#0 523389756#1 523389756#2 95500953#0 95500953#1 95500953#2 -4039139#1 -4039139#0 34378204#0 34378204#1 34378204#2 34378204#3 25468017#0 25468017#1 25468017#2 25468017#3 25468017#4 24016102#0 24016102#1 24016102#2 24016102#3 24016102#4 24016102#5 24016102#6 24016102#7 24016102#8 24016102#9 24016102#10 24016102#11 24016102#12 24016102#13 24016102#14 24016102#15 24016102#16 1310896362#0 1310896362#1 138279097#0 138279097#1 138279097#2 138279097#3 1033801614#0 1033801614#1 1033801614#2 553772525 138276753#0 138276753#1 37192190"/>
    </vehicle>
    <vehicle id="9" depart="9.00">
        <route edges="4902489#3 4902489#4 4902489#5 4902489#6 4902489#7 4902489#8 1318054076#3 1318054076#4 1318054076#5 1318054076#6 1318054076#7 1318054076#8 1318054076#9 1318054076#10 1318054076#11 1318054076#12 231373089#0 231373089#1 231373089#2 231373089#3 231373089#4 231373089#5 231373089#6 231373089#7 231373089#8 538082811#11 538082811#12 538082811#13 538082811#14 538082811#15 538082811#0 538082811#1 -122617706#2 -122617706#1 -122617706#0"/>
    </vehicle>
    <vehicle id="11" depart="11.00">
        <route edges="161357556#3 161357556#4 161357556#5 25468017#0 25468017#1 25468017#2 25468017#3 25468017#4 -164286216#3 -164286216#2 -164286216#1 -164286216#0 -1290939474#2 -1290939474#1 -1290939474#0 -1290939473#1 -1290939473#0 -345617053#2 -345617053#1 -345617053#0"/>
    </vehicle>
    <vehicle id="12" depart="12.00">
        <route edges="8412377#1 -538082812#6 -538082812#5 -538082812#4 -538082812#3 -538082812#2 -538082812#1 -538082812#0 -264313540#6 -264313540#5 -264313540#4 4450705#4 4453435#0 4453435#1 4453435#2 4453435#3 4453435#4 -24016102#10 -24016102#9 4902489#0 4902489#1 4902489#2 4902489#3 4902489#4 4902489#5 4902489#6 4902489#7 4902489#8 1318054076#3 1318054076#4"/>
    </vehicle>
    <vehicle id="13" depart="13.00">
        <route edges="-24016102#3 -24016102#2 -24016102#1 -24016102#0 24016102#0 24016102#1 24016102#2 24016102#3 24016102#4 24016102#5 24016102#6 24016102#7 24016102#8 24016102#9 24016102#10 -24016102#10"/>
    </vehicle>
    <vehicle id="14" depart="14.00">
        <route edges="52073597#2 52073597#3 52073597#4 537495962#0 537495962#1 537495962#2 538082811#7 538082811#8 538082811#9 538082811#10 538082811#11 523389756#0 523389756#1 523389756#2 523389756#3 4447087#0 4447087#1 4447087#2 4447087#3 4447087#4 4447087#5 648289151#0 648289151#1 648289151#2 648289151#3 164286214#0 164286214#1 164286214#2 164286214#3 164286214#4 164286214#5 164286214#6 164286214#7 24038185#16 24038185#17 24038185#18 24038185#19 24038185#20 24038185#21 24038185#22 24038185#23 378989483#0 378989483#1 378989483#2 378989483#3 378989483#4 378989483#5"/>
    </vehicle>
    <vehicle id="15" depart="15.00">
        <route edges="4902489#2 4902489#3 4902488#0 4902488#1 4902488#2 24038185#7 24038185#8 24038185#9 24038185#10 24038185#11 24038185#12 24038185#13 24038185#14 24038185#15 264313540#0 264313540#1 264313540#2 264313540#3 4450705#4 4450706#0 4450706#1"/>
    </vehicle>
    <vehicle id="16" depart="16.00">
        <route edges="27619127#1 27619127#2 27619127#3 -27619127#3 -27619127#2 -27619127#1 -27619127#0 -977539434#5 -977539434#4 -977539434#3 -977539434#2 -977539434#1 -977539434#0 -519905875#3 -519905875#2 -519905875#1 -519905875#0 -1320186868#6 -1320186868#5 -1320186868#4 -1320186868#3 -1320186868#2 -1320186868#1 -1320186868#0 -1318221181#3 8412377#0 8412377#1"/>
    </vehicle>
    <vehicle id="17" depart="17.00">
        <route edges="208763263#2 208763263#3 208763263#4 208763263#5 -4447069#2 -4447069#1 -4447069#0 4447074#0 4447074#1 27601236#0 27601236#1"/>
    </vehicle>
    <vehicle id="18" depart="18.00">
        <route edges="5103455#1 5103455#2 -264313540#1 -264313540#0 -164286214#7 -164286214#6 -164286214#5 -164286214#4 -164286214#3 -164286214#2 -164286214#1 -164286214#0 -648289151#3 -648289151#2 -648289151#1 -648289151#0 -4447087#5 -4447087#4 -4447087#3 -4447087#2 -4447087#1 -4447087#0 523389755#0 523389755#1 523389755#2 538082811#15 538082811#0 538082811#1 538082811#2 538082811#3 538082811#4 538082811#5 538082811#6 538082811#7 4444153#0 4444153#1 4444153#2"/>
    </vehicle>
    <vehicle id="19" depart="19.00">
        <route edges="53355676#5 53355676#6 53355676#7 53355676#8 53355676#9 52073595#0 52073595#1 52073595#2 52073595#3 52073595#4 538082811#10 538082811#11 538082811#12 538082811#13 538082811#14 538082811#15 538082811#0 538082811#1 538082811#2 34855465#0 34855465#1 34855465#2 34855465#3 -614904273#2 -614904273#1 -614904273#0 -614904272 -648489614#1 -648489614#0 974421670 122617707#0 122617707#1 122617707#2 122617707#3 1353412785#0 1353412785#1 1353412785#2 1219536458#0 357248822"/>
    </vehicle>
    <vehicle id="20" depart="20.00">
        <route edges="4450704#3 4450704#4 4450704#5 4450705#0 4450705#1 4450705#2 4450705#3 4450705#4 -27281303#2 -27281303#1 -27281303#0 -1310896019#2 -1310896019#1 -1310896019#0 -4453430#1 318523942#4 318523942#5 318523942#6 318523942#7 -1121983403#1 -1121983403#0 -37073509#1 -37073509#0 -138277195#1 -138277195#0"/>
    </vehicle>
    <vehicle id="22" depart="22.00">
        <route edges="-231373089#6 -231373089#5 24038228#0 24038228#1 24038228#2 24038228#3 24038228#4 24038228#5 24038228#6 53355676#7 53355676#8 53355676#9 -52073596#5 -52073596#4"/>
    </vehicle>
    <vehicle id="23" depart="23.00">
        <route edges="-25112694#2 -25112694#1 -25112694#0 52073596#0 52073596#1 52073596#2 52073596#3 52073596#4 52073596#5 52073595#0 52073595#1 52073595#2 52073595#3 52073595#4 538082811#10 538082811#11 538082811#12 538082811#13 538082811#14 538082811#15 538082811#0 538082811#1 538082811#2 34855465#0 34855465#1 34855465#2 34855465#3 25474003#0 25474003#1 25474003#2 1219536456#0 1219536456#1"/>
    </vehicle>
    <vehicle id="24" depart="24.00">
        <route edges="4447063#3 4447063#4 4447063#5 4447063#6 4447063#7 4447063#8 537495962#0 537495962#1 537495962#2 538082811#7 538082811#8 538082811#9 538082811#10 -231373089#8 -231373089#7 -231373089#6 -231373089#5 -231373089#4 -231373089#3 -231373089#2 -231373089#1 -231373089#0 -1318054076#12 -1318054076#11 -1318054076#10 52108083#0 52108083#1 52108083#2 161357556#0 161357556#1 161357556#2 161357556#3"/>
    </vehicle>
    <vehicle id="25" depart="25.00">
        <route edges="208763262#2 208763262#3 208763262#4 1073043103 -648289152#5 -648289152#4 -648289152#3 -648289152#2 -648289152#1 -648289152#0 -648289150#2 -648289150#1 -648289150#0 -4447087#5 -4447087#4"/>
    </vehicle>
    <vehicle id="26" depart="26.00">
        <route edges="122617720#1 122617720#2 122617720#3 4447069#0 4447069#1 4447069#2 208763271#0 208763271#1 580067989 580067988#3 648289149#0 580067987 -648289150#1 -648289150#0 648289151#0 648289151#1"/>
    </vehicle>
    <vehicle id="27" depart="27.00">
        <route edges="4447065#12 4447065#13 4447065#14 4447065#15 4447065#16 4447065#17 4447065#18 4447065#19 -4082034#10 -4082034#9 -4082034#8 -4082034#7 -4082034#6 -4082034#5 -4082034#4 -4082034#3 -4082034#2 -4082034#1 -4082034#0 4082034#0 4082034#1"/>
    </vehicle>
    <vehicle id="28" depart="28.00">
        <route edges="-4447068#1 -4447068#0 4447068#0 4447068#1 4447068#2 4447068#3 648289149#0 648289149#1 122617737#0 122617737#1 122617737#2 370683936 1290939473#0 1290939473#1 164286214#0 164286214#1 164286214#2 164286214#3 164286214#4 164286214#5 164286214#6 164286214#7 264313540#0 264313540#1 264313540#2 264313540#3 4450705#4 4450706#0 4450706#1"/>
    </vehicle>
    <vehicle id="30" depart="30.00">
        <route edges="974771593#0 974771593#1 4447063#3 4447063#4 4447063#5 4447063#6 4447063#7 4447063#8 537495962#0 537495962#1 537495962#2 538082811#7 538082811#8 538082811#9 538082811#10 538082811#11 523389756#0 523389756#1 523389756#2 523389756#3 4447087#0 4447087#1 4447087#2 4447087#3 4447087#4 4447087#5 648289151#0 648289151#1 648289151#2 648289151#3 164286214#0 164286214#1 164286214#2 164286214#3 164286214#4 164286214#5 164286214#6 164286214#7 24038185#16 24038185#17 24038185#18 24038185#19 24038185#20 24038185#21 24038185#22 24038185#23 378989481#0 378989481#1 4444166#0 4444166#1"/>
    </vehicle>
    <vehicle id="31" depart="31.00">
        <route edges="357248822 25474003#2 1219536456#0 1219536456#1 1353412784#0 1353412784#1 1353412784#2 1228936483 673557104#0 4447072#0 4447072#1"/>
    </vehicle>
    <vehicle id="32" depart="32.00">
        <route edges="52073596#2 4472352#0 4472352#1 4472352#2 4472352#3 34849332#0 34849332#1 34849332#2 4472357#0 4472357#1 4472357#2 4472358#3 4472358#4 4472358#5 4472350#0 4472350#1 4472350#2"/>
    </vehicle>
    <vehicle id="33" depart="33.00">
        <route edges="-648289151#1 -648289151#0 -25467965#3 -25467965#2 -25467965#1 -25467965#0 -161357556#5 -161357556#4 -161357556#3 -161357556#2 -161357556#1 -161357556#0 -52108083#2 -52108083#1 -52108083#0 -1318054076#9 -1318054076#8 -1318054076#7 -1318054076#6 -1318054076#5 -1318054076#4 -1318054076#3 -1318054076#2"/>
    </vehicle>
    <vehicle id="34" depart="34.00">
        <route edges="1318054309#4 1318054309#5 1318054309#6 1318054309#7 -24016102#12 -24016102#11 -24016102#10 -24016102#9 -24016102#8 -24016102#7 -24016102#6 -24016102#5 -24016102#4 4453443#0 4453443#1 4453443#2 4453443#3 -1290939474#1 -1290939474#0 -1290939473#1 -1290939473#0 -345617053#2 -345617053#1 -345617053#0 -1290939471 -1290939472 208763272 648289153#0 648289153#1 977481198#0 977481198#1 977481198#2 977481198#3 -977481198#3"/>
    </vehicle>
    <vehicle id="35" depart="35.00">
        <route edges="-538082812#1 -538082812#0 519905875#0 519905875#1 519905875#2 519905875#3 977539434#0 977539434#1 977539434#2 977539434#3 977539434#4 977539434#5 27619127#0 27619127#1 27619127#2 27619127#3 27619127#4 27619127#5 345617051 345617050#0 345617050#1 -122617735#1 -122617735#0 648289152#0 648289152#1 648289152#2 648289152#3"/>
    </vehicle>
    <vehicle id="36" depart="36.00">
        <route edges="53746251#4 53746251#5 53746251#6 53746251#7 53746251#8 53746251#9 538082811#9 538082811#10 538082811#11 538082811#12 538082811#13 538082811#14 538082811#15 4444146#0 4444146#1 4444146#2 4447068#0 4447068#1 4447068#2 4447068#3 648289149#0 648289149#1 122617735#0 122617735#1"/>
    </vehicle>
    <vehicle id="37" depart="37.00">
        <route edges="4447068#1 4447068#2 -4447068#2 -4447068#1 -4447068#0 208763263#0 208763263#1 208763263#2"/>
    </vehicle>
    <vehicle id="38" depart="38.00">
        <route edges="638578600#3 638578600#4 638578600#5 638578600#6 4444148#0 4444148#1 4444148#2 122617706#0 122617706#1 122617706#2 538082811#2 538082811#3 538082811#4 538082811#5 538082811#6 538082811#7 538082811#8 538082811#9 538082811#10 538082811#11 523389756#0 523389756#1 523389756#2 95500953#0 95500953#1 95500953#2 -4039139#1 -4039139#0 34378204#0 34378204#1 34378204#2 34378204#3 25468017#0 25468017#1 25468017#2 25468017#3 25468017#4 24016102#0 24016102#1 24016102#2 24016102#3 24016102#4 24016102#5 24038185#11 24038185#12 24038185#13 24038185#14"/>
    </vehicle>
    <vehicle id="39" depart="39.00">
        <route edges="122617720#1 122617720#2 122617720#3 122617720#4 122617720#5 122617720#6 122617720#7 122617720#8 122617720#9 122617720#10 122617720#11 538082811#1 538082811#2 538082811#3 537495969#0 537495969#1 537495969#2 -52073597#4 -52073597#3 -52073597#2 -52073597#1 -52073597#0 27600795#0 27600795#1 27600795#2 -1231728266 -1231728268 -602904955#2"/>
    </vehicle>
    <vehicle id="40" depart="40.00">
        <route edges="364792828#0 364792828#1 364792828#2 364792828#3 364792828#4 364792828#5 364792828#6 364792828#7 364792828#8 52108083#0 52108083#1 52108083#2 161357556#0 161357556#1 161357556#2 161357556#3 161357556#4 161357556#5 25467965#0 25467965#1 25467965#2 25467965#3 648289150#0 648289150#1 648289150#2 648289152#0 648289152#1 648289152#2 648289152#3 648289152#4 648289152#5 -648289152#5 -648289152#4 -648289152#3"/>
    </vehicle>
    <vehicle id="41" depart="41.00">
        <route edges="378989483#5 378989483#6 -378989483#6 -378989483#5 -378989483#4 -378989483#3 -378989483#2 -378989483#1 -378989483#0 -1201196829#1 -1201196829#0 -24016058#4 -24016058#3 -24016058#2 -24016058#1 -24016058#0 1290939469#0 1290939469#1 1290939470 190909087#0 190909087#1 190909087#2 190909087#3 190909087#4 345617051 345617050#0 345617050#1 -122617735#1 -122617735#0 -648289150#2 -648289150#1 -648289150#0 -4447087#5 -4447087#4 4447075#0 4447075#1 4447075#2 4447075#3 4447075#4 4447075#5 4447075#6 24038228#0 24038228#1 24038228#2 24038228#3 24038228#4 24038228#5 24038228#6 53355676#7 53355676#8 53355676#9 59846917#0 59846917#1 59846917#2 53746251#6 53746251#7"/>
    </vehicle>
    <vehicle id="42" depart="42.00">
        <route edges="24016102#10 -24016102#10 -24016102#9 -24016102#8 -24016102#7 -24016102#6 -24016102#5 -24016102#4 -24016102#3 -24016102#2 -24016102#1 -24016102#0 502174128#0 502174128#1 502174128#2 502174128#3 502174128#4 502174128#5 -502174128#5 -502174128#4 -502174128#3 -502174128#2"/>
    </vehicle>
    <vehicle id="43" depart="43.00">
        <route edges="977481198#4 977481198#5 977481198#6 1073043099#0 1073043099#1 -1073043099#1 -1073043099#0 -977481198#6 -977481198#5 -977481198#4 -977481198#3 -977481198#2 -977481198#1 -977481198#0 345617051 345617050#0 345617050#1 -122617735#1 -122617735#0 -648289150#2 -648289150#1 -648289150#0 -25467965#3 -25467965#2 -25467965#1 -25467965#0 25468017#0 25468017#1 25468017#2"/>
    </vehicle>
    <vehicle id="44" depart="44.00">
        <route edges="-24016102#2 -24016102#1 -24016102#0 24016102#0 24016102#1 24016102#2 24016102#3 24016102#4 24016102#5 24016102#6 24016102#7 24016102#8 24016102#9 24016102#10 24016102#11 24016102#12 24016102#13 24016102#14 24016102#15 24016102#16 1310896362#0 318523942#7 -1121983403#1 -1121983403#0 -37073509#1 -37073509#0 -138277195#1 -138277195#0"/>
    </vehicle>
    <vehicle id="45" depart="45.00">
        <route edges="-264313540#1 -264313540#0 -164286214#7 -164286214#6 -164286214#5 -164286214#4 -164286214#3 -164286214#2 -164286214#1 -164286214#0 -648289151#3 -648289151#2 -648289151#1 -648289151#0 -4447087#5 -4447087#4 -4447087#3 -4447087#2 -4447087#1 -4447087#0 523389755#0 523389755#1 523389755#2 538082811#15 538082811#0 538082811#1 538082811#2 538082811#3 538082811#4 538082811#5 538082811#6 538082811#7 4444153#0 4444153#1 4444153#2 4444153#3 4444153#4 4444153#5 4444153#6 4444153#7 4444153#8"/>
    </vehicle>
    <vehicle id="46" depart="46.00">
        <route edges="4472370#1 4472370#2 4447065#4 4447065#5 4447065#6 4447065#7 4447065#8 53746251#3 53746251#4 53746251#5 53746251#6 53746251#7 53746251#8 53746251#9 538082811#9 538082811#10 538082811#11 523389756#0 523389756#1 523389756#2 95500953#0 95500953#1 95500953#2 -4039139#1 -4039139#0 34378204#0 34378204#1 34378204#2 34378204#3 25468017#0 25468017#1 25468017#2 25468017#3 25468017#4 24016102#0 24016102#1 24016102#2 24016102#3 24016102#4 24016102#5 24016102#6 24016102#7 24016102#8 24016102#9 24016102#10 24016102#11 24016102#12 24016102#13 24016102#14"/>
    </vehicle>
    <vehicle id="47" depart="47.00">
        <route edges="-205674204#1 205674204#1"/>
    </vehicle>
    <vehicle id="48" depart="48.00">
        <route edges="977481198#3 -977481198#3 -977481198#2 -977481198#1 -977481198#0 -27619127#5 -27619127#4 -27619127#3 -27619127#2 -27619127#1 -27619127#0 -977539434#5 -977539434#4 -977539434#3 -977539434#2 -977539434#1 -977539434#0 4450705#0 4450705#1 4450705#2 4450705#3 4450705#4 -27281303#2 -27281303#1 -27281303#0 27281303#0 27281303#1"/>
    </vehicle>
    <vehicle id="49" depart="49.00">
        <route edges="8413388#0 8413388#1 8413388#2 4472343#3 4472343#4 543204402#0 543204402#1 543204402#2 974421670 122617707#0 122617707#1 122617707#2 122617707#3 4444148#0 4444148#1 4444148#2 122617706#0 122617706#1 122617706#2 538082811#2 538082811#3 538082811#4 538082811#5 538082811#6 538082811#7 538082811#8 538082811#9 -52073595#4 -52073595#3 -52073595#2 52073595#2"/>
    </vehicle>
    <vehicle id="50" depart="50.00">
        <route edges="-122617735#1 -122617735#0 122617735#0 122617735#1 202498505#0 202498505#1 202498505#2 648289153#0 648289153#1 -27619127#5 -27619127#4 -27619127#3 -27619127#2 -27619127#1 -27619127#0 -977539434#5 -977539434#4 -977539434#3 -977539434#2 -977539434#1 -977539434#0 -519905875#3 -519905875#2 -519905875#1 -519905875#0 538082812#0 538082812#1 538082812#2 538082812#3 4450703#5 4450704#0 4450704#1"/>
    </vehicle>
    <vehicle id="51" depart="51.00">
        <route edges="4447087#2 4447087#3 4447087#4 4447087#5 648289150#0 648289150#1 648289150#2 122617735#0 122617735#1 202498505#0 202498505#1 202498505#2 648289153#0 648289153#1 -190909087#4 -190909087#3 -190909087#2 -190909087#1 -190909087#0 -1290939470 -1290939469#1 -1290939469#0 24016058#0 24016058#1 24016058#2 24016058#3 24016058#4 27447880#0 27447880#1"/>
    </vehicle>
    <vehicle id="53" depart="53.00">
        <route edges="-264313540#2 -264313540#1 -264313540#0 -164286214#7 -164286214#6 -164286214#5 -164286214#4 -164286214#3 -164286214#2 -164286214#1 -164286214#0 -648289151#3 -648289151#2 -648289151#1 -648289151#0 -4447087#5 -4447087#4 4447075#0 4447075#1 4447075#2 4447075#3 4447075#4 4447075#5 4447075#6 24038228#0 24038228#1 24038228#2 24038228#3 24038228#4 24038228#5 24038228#6 24038228#7 24038228#8 24038228#9 4472352#0 4472352#1 4472352#2 4472352#3 4472352#4 4472352#5 4472352#6 24017627#2 24017627#3"/>
    </vehicle>
    <vehicle id="54" depart="54.00">
        <route edges="24038185#9 24038185#10 -24016102#5 -24016102#4 4453443#0 4453443#1 4453443#2 4453443#3 -1290939474#1 -1290939474#0 -1290939473#1 -1290939473#0 -370683936 -122617737#2 -122617737#1 -122617737#0 580067988#0 580067988#1 580067988#2 580067988#3 -4447068#3 8412356#0 8412356#1"/>
    </vehicle>
    <vehicle id="55" depart="55.00">
        <route edges="53746251#4 53746251#5 53746251#6 53746251#7 53746251#8 53746251#9 538082811#9 538082811#10 538082811#11 538082811#12 538082811#13 538082811#14 538082811#15 4444146#0 4444146#1 4444146#2 208763263#0 208763263#1 208763263#2 208763263#3 208763263#4 208763263#5 208763262#0 208763262#1 208763262#2 208763262#3 208763262#4 1073043103 -648289152#5 -648289152#4 -648289152#3"/>
    </vehicle>
    <vehicle id="56" depart="56.00">
        <route edges="27281303#1 27281303#2 -4450705#4 -264313540#3 -264313540#2 -264313540#1 -264313540#0 -164286214#7 -164286214#6 -164286214#5 -164286214#4 -164286214#3 -164286214#2 -164286214#1 -164286214#0 -648289151#3 -648289151#2 -648289151#1 -648289151#0 -4447087#5 -4447087#4 4447075#0 4447075#1 4447075#2 4039139#0 4039139#1 -4039139#1"/>
    </vehicle>
    <vehicle id="57" depart="57.00">
        <route edges="638578600#0 638578600#1 638578600#2 638578600#3 638578600#4 638578600#5 638578600#6 1353412785#0 1353412785#1 1353412785#2 1219536458#0 1219536458#1 -25474003#2 -25474003#1 -25474003#0 27600643#0 27600643#1 602904955#0 602904955#1 602904955#2 1231728268 1231728266 523217748#0 523217748#1 523217748#2 523217748#3 331451044 91095509 1231728267 52073597#0 52073597#1 52073597#2"/>
    </vehicle>
    <vehicle id="58" depart="58.00">
        <route edges="1310896363#2 1310896363#3 4450703#0 1320186868#3 1320186868#4 1320186868#5 1320186868#6 519905875#0 519905875#1 519905875#2 519905875#3 977539434#0 977539434#1 977539434#2 977539434#3 977539434#4 977539434#5 24038185#19 24038185#20 24038185#21 24038185#22 24038185#23 378989481#0 378989481#1 4444166#0 4444166#1"/>
    </vehicle>
    <vehicle id="59" depart="59.00">
        <route edges="4444164#0 4444164#1 4444164#2 4444189#3 4444189#4 975638905#0 975638905#1 247113362#0 247113362#1 247113362#2 247113362#3 247113362#4 247113362#5 247113362#6 247113362#7 247113362#8 1290939469#0 1290939469#1 1290939470 190909087#0 190909087#1 190909087#2 190909087#3 190909087#4 345617051 345617050#0 345617050#1 -122617735#1 -122617735#0 -648289150#2 -648289150#1 -648289150#0 -25467965#3 -25467965#2 -25467965#1 -25467965#0 -34378204#3 -34378204#2 -34378204#1"/>
    </vehicle>
    <vehicle id="60" depart="60.00">
        <route edges="4472352#5 4472352#6 4472352#7 4472352#8 364792828#1 364792828#2 364792828#3 364792828#4 364792828#5 24038185#0 24038185#1 24038185#2 24038185#3 24038185#4 24038185#5 24038185#6 24038185#7 24038185#8 24038185#9 24038185#10 24038185#11 24038185#12 24038185#13 24038185#14 24038185#15 24038185#16 24038185#17 24038185#18 24038185#19 24038185#20 24038185#21 24038185#22 24038185#23 -1201196829#1 -1201196829#0 27447880#0 27447880#1 27447880#2"/>
    </vehicle>
    <vehicle id="61" depart="61.00">
        <route edges="4472358#1 4472358#2 4472357#3 4472357#4 4472357#5 -1318054076#12 -1318054076#11 -1318054076#10 52108083#0 52108083#1 52108083#2 161357556#0 -502174128#5 -502174128#4 -502174128#3 -502174128#2 -502174128#1 -502174128#0 -164286216#3 -164286216#2 -164286216#1 -164286216#0 -1290939474#2 -1290939474#1 -1290939474#0 -1290939473#1 -1290939473#0 -345617053#2 -345617053#1 -345617053#0 -1290939471 -1290939472 208763272 648289153#0 648289153#1 -190909087#4 -190909087#3 -190909087#2 -190909087#1 -190909087#0 -1290939470 -1290939469#1 -1290939469#0 24016058#0 24016058#1 27447820#0 27447820#1"/>
    </vehicle>
    <vehicle id="62" depart="62.00">
        <route edges="-1201196829#0 -24016058#4 -24016058#3 -24016058#2 -24016058#1 -24016058#0 1290939469#0 1290939469#1 1290939470 190909087#0 190909087#1 190909087#2 190909087#3 190909087#4 345617051 345617052#0 345617052#1 1290939472 1290939471"/>
    </vehicle>
    <vehicle id="64" depart="64.00">
        <route edges="53746251#4 53746251#5 53746251#6 53746251#7 53746251#8 53746251#9 538082811#9 538082811#10 -231373089#8 -231373089#7 -231373089#6 -231373089#5 -231373089#4 -231373089#3 -231373089#2 -231373089#1 -231373089#0 -1318054076#12 -1318054076#11 -1318054076#10 -1318054076#9 -1318054076#8 -1318054076#7 -1318054076#6 24038185#3 24038185#4 4902486#0 4902486#1 4902486#2 4902489#6 4902489#7"/>
    </vehicle>
    <vehicle id="65" depart="65.00">
        <route edges="1318054076#4 1318054076#5 24038185#3 24038185#4 24038185#5 24038185#6 24038185#7 24038185#8 24038185#9 24038185#10 24038185#11 24038185#12 5103458#0 5103458#1 5103458#2 5103458#3 -164286214#4 -164286214#3 -164286214#2"/>
    </vehicle>
    <vehicle id="66" depart="66.00">
        <route edges="53746251#4 53746251#5 27600216#0 27600216#1 4444153#4 4444153#5 4444153#6 4447065#7 4447065#8 4447065#9 4447065#10 24017674#0 24017674#1 791022796#2"/>
    </vehicle>
    <vehicle id="67" depart="67.00">
        <route edges="-24016102#11 -24016102#10 -24016102#9 -24016102#8 -24016102#7 -24016102#6 -24016102#5 -24016102#4 -24016102#3 -24016102#2 -24016102#1 -24016102#0 -25468017#4 -25468017#3 -25468017#2 -25468017#1 -25468017#0 -34378204#3 -34378204#2 -34378204#1 -34378204#0 4447075#3 4447075#4 4447075#5 4447075#6 24038228#0 24038228#1 24038228#2 24038228#3 24038228#4 24038228#5 24038228#6 24038228#7 24038228#8 24038228#9 24038226#0 24038226#1 24038226#2 24038226#3 24038226#4"/>
    </vehicle>
    <vehicle id="68" depart="68.00">
        <route edges="-208763271#1 -208763271#0 -4447069#2 -4447069#1 -4447069#0 122617720#4 122617720#5 122617720#6 122617720#7 122617720#8 122617720#9 122617720#10 122617720#11 538082811#1 -122617706#2 -122617706#1 -122617706#0 122617705#0 122617705#1 673557104#0 673557104#1 673557104#2 4463072#0"/>
    </vehicle>
    <vehicle id="69" depart="69.00">
        <route edges="4472352#7 4472352#8 364792828#1 364792828#2 364792828#3 364792828#4 364792828#5 24038185#0 24038185#1 24038185#2 24038185#3 24038185#4 24038185#5 24038185#6 24038185#7 24038185#8 24038185#9 24038185#10 24038185#11 24038185#12 24038185#13 24038185#14 24038185#15 264313540#0 264313540#1 264313540#2 264313540#3 4450705#4 -27281303#2 -27281303#1"/>
    </vehicle>
    <vehicle id="70" depart="70.00">