<?xml version="1.0" encoding="UTF-8"?>

<!-- generated on 2025-06-27 16:42:15 by Eclipse SUMO polyconvert Version 1.22.0
<polyconvertConfiguration xmlns:xsi="http://www.w3.org/2001/XMLSchema-instance" xsi:noNamespaceSchemaLocation="http://sumo.dlr.de/xsd/polyconvertConfiguration.xsd">

    <input>
        <net-file value="map.net.xml"/>
        <osm-files value="map.osm"/>
        <type-file value="map.net.xml"/>
    </input>

    <output>
        <output-file value="map.poly.xml"/>
    </output>

</polyconvertConfiguration>
-->

<additional xmlns:xsi="http://www.w3.org/2001/XMLSchema-instance" xsi:noNamespaceSchemaLocation="http://sumo.dlr.de/xsd/additional_file.xsd">
    <location netOffset="-446734.64,-5413138.67" convBoundary="-0.00,-0.00,7308.95,9669.43" origBoundary="2.273661,48.868920,2.373218,48.956101" projParameter="+proj=utm +zone=31 +ellps=WGS84 +datum=WGS84 +units=m +no_defs"/>

    <poly id="1030132475" type="unknown" color="128,128,128" fill="0" layer="-1.00" shape="2855.450130,1298.496342 2863.131860,1299.849887"/>
    <poly id="1033801613" type="unknown" color="128,128,128" fill="0" layer="-1.00" shape="2611.581986,1217.939596 2623.697114,1228.668727 2621.796078,1238.947078"/>
    <poly id="1033801614" type="unknown" color="128,128,128" fill="0" layer="-1.00" shape="2618.392996,1254.186184 2628.853894,1256.359065 2631.439791,1256.902554 2634.577077,1257.607795"/>
    <!-- All building polygons' color attributes should be set to gray (#888888).
         Example:
         <poly id="..." type="building" color="#888888" ... />
         Please update all <poly> elements with type="building" accordingly.
    -->
    <poly id="1044809067" type="unknown" color="128,128,128" fill="1" layer="-1.00" shape="1407.234402,1709.615599 1414.567518,1715.283843 1418.598009,1710.343696 1411.366595,1704.574447 1407.234402,1709.615599"/>
    <poly id="1059912719" type="unknown" color="128,128,128" fill="0" layer="-1.00" shape="2283.968506,2048.872873 2281.328086,2046.340082 2278.937221,2043.037928"/>
    <poly id="1073043098" type="unknown" color="128,128,128" fill="0" layer="-1.00" shape="2280.091832,2016.979939 2285.298916,2012.374295 2291.688968,2009.658868"/>
    <poly id="1073043099" type="unknown" color="128,128,128" fill="0" layer="-1.00" shape="2317.978101,1990.308205 2314.853398,1994.950370 2312.010737,1999.167509"/>
    <poly id="1073043100" type="unknown" color="128,128,128" fill="0" layer="-1.00" shape="2312.010737,1999.167509 2312.748481,2015.714166"/>
    <poly id="1073043101" type="unknown" color="128,128,128" fill="0" layer="-1.00" shape="2302.764066,1994.149272 2312.010737,1999.167509"/>
    <poly id="1073043102" type="unknown" color="128,128,128" fill="0" layer="-1.00" shape="2291.688968,2009.658868 2302.764066,1994.149272"/>
    <poly id="1073043103" type="unknown" color="128,128,128" fill="0" layer="-1.00" shape="2291.688968,2009.658868 2290.901761,1987.709741"/>
    <poly id="1073043105" type="unknown" color="128,128,128" fill="0" layer="-1.00" shape="2324.423471,1992.839594 2323.611033,1995.392840 2323.921327,1997.257681 2329.569490,2012.836749"/>
    <poly id="1078278017" type="unknown" color="128,128,128" fill="0" layer="-1.00" shape="1452.387914,1751.151897 1459.374148,1742.382246"/>
    <poly id="1078278018" type="unknown" color="128,128,128" fill="1" layer="-1.00" shape="1459.325648,1776.612399 1460.209287,1775.448004 1449.196319,1766.678866 1453.378790,1761.526106 1457.169837,1756.855024 1468.252922,1766.068212 1472.368413,1769.487410 1463.751105,1780.251053 1459.325648,1776.612399"/>
    <poly id="1087991825" type="unknown" color="128,128,128" fill="0" layer="-1.00" shape="2843.861542,1296.466641 2847.070786,1297.026827 2855.450130,1298.496342"/>
    <poly id="1087991826" type="unknown" color="128,128,128" fill="0" layer="-1.00" shape="2840.226259,1295.821373 2843.861542,1296.466641"/>
    <poly id="1094430605" type="unknown" color="128,128,128" fill="0" layer="-1.00" shape="2264.248424,1468.739435 2260.506715,1464.471338 2257.614722,1460.918083"/>
    <poly id="1094430607" type="unknown" color="128,128,128" fill="0" layer="-1.00" shape="2281.120609,1443.215865 2287.395445,1446.271283 2294.308413,1449.354226"/>
    <poly id="1094430608" type="unknown" color="128,128,128" fill="0" layer="-1.00" shape="2267.001839,1448.325456 2267.557004,1447.297603 2271.974599,1446.901451 2279.772363,1441.705149 2281.120609,1443.215865"/>
    <poly id="1111196292" type="unknown" color="128,128,128" fill="1" layer="-1.00" shape="2718.206925,1739.386938 2722.776783,1742.869629 2725.595400,1739.186548 2721.025541,1735.703854 2718.206925,1739.386938"/>
    <poly id="1111196293" type="unknown" color="128,128,128" fill="1" layer="-1.00" shape="2775.880178,1605.281198 2773.778590,1608.001686 2773.009518,1608.086471 2770.881921,1606.315886 2766.307177,1612.015927 2761.553656,1612.548137 2751.944053,1604.719815 2751.052184,1605.817372 2749.324033,1606.055372 2747.366966,1608.541102 2743.024183,1605.045214 2745.310751,1602.512029 2747.164685,1604.018273 2751.719035,1598.496275 2763.404125,1608.006713 2769.742535,1600.322969 2775.045409,1604.588380 2775.880178,1605.281198"/>
    <poly id="1111196295" type="unknown" color="128,128,128" fill="1" layer="-1.00" shape="2546.509636,1871.816974 2547.401976,1869.974532 2549.926974,1864.659814 2551.285307,1861.656953 2552.795163,1858.385903 2548.120230,1854.637495 2544.007091,1851.395366 2543.166822,1852.514723 2545.397134,1854.295404 2538.237565,1863.521050 2535.793546,1861.620028 2535.019460,1862.761018 2546.509636,1871.816974"/>
    <poly id="1112249975" type="unknown" color="128,128,128" fill="0" layer="-1.00" shape="2627.271911,1908.814283 2649.217332,1930.082133 2651.391245,1929.695531 2672.841095,1950.501052 2673.065860,1953.456164 2703.671205,1982.216393 2706.404957,1982.124896 2711.746498,1986.645587 2711.894737,1990.057196 2717.413439,1995.521240 2720.529994,1995.604153 2727.226329,2001.580034 2727.816214,2005.187748 2783.464337,2058.212429 2785.779485,2057.235392"/>
    <poly id="1112249976" type="unknown" color="128,128,128" fill="0" layer="-1.00" shape="2841.295222,2002.537041 2843.888852,1999.923295 2847.209118,1996.591484"/>
    <poly id="1112249977" type="unknown" color="128,128,128" fill="0" layer="-1.00" shape="2783.021070,1943.687967 2786.906661,1942.874585"/>
    <poly id="1112249978" type="unknown" color="128,128,128" fill="0" layer="-1.00" shape="2786.906661,1942.874585 2791.333673,1944.368662 2796.282777,1946.035889"/>
    <poly id="1112249979" type="unknown" color="128,128,128" fill="0" layer="-1.00" shape="2796.282777,1946.035889 2802.662512,1949.435556 2809.246051,1950.243100 2811.070920,1950.982547"/>
    <poly id="1112249980" type="unknown" color="128,128,128" fill="0" layer="-1.00" shape="2810.873456,1960.756273 2802.662512,1949.435556"/>
    <poly id="1112249981" type="unknown" color="128,128,128" fill="0" layer="-1.00" shape="2814.097508,1956.513710 2859.834033,1977.989564 2863.650649,1980.901090"/>
    <poly id="1112249992" type="unknown" color="128,128,128" fill="0" layer="-1.00" shape="2868.186856,1980.693322 2863.650649,1980.901090"/>
    <poly id="1112249999" type="unknown" color="128,128,128" fill="0" layer="-1.00" shape="2840.742213,2002.997845 2839.356190,2001.331699 2803.349801,1966.238404 2783.021070,1943.687967"/>
    <poly id="1112250000" type="unknown" color="128,128,128" fill="0" layer="-1.00" shape="2785.779485,2057.235392 2787.905010,2054.748146 2795.398469,2047.565346 2801.106638,2043.200230 2839.339777,2006.001033 2840.742213,2002.997845"/>
    <poly id="1112250001" type="unknown" color="128,128,128" fill="0" layer="-1.00" shape="2783.021070,1943.687967 2771.877910,1935.651162"/>
    <poly id="1112250002" type="unknown" color="128,128,128" fill="0" layer="-1.00" shape="2811.070920,1950.982547 2813.677577,1952.237423 2814.097508,1956.513710"/>
    <poly id="1112250003" type="unknown" color="128,128,128" fill="0" layer="-1.00" shape="2847.942582,1995.817769 2810.873456,1960.756273"/>
    <poly id="1112250004" type="unknown" color="128,128,128" fill="0" layer="-1.00" shape="2863.650649,1980.901090 2862.212648,1984.026881 2851.049483,1994.833600 2847.942582,1995.817769"/>
    <poly id="1112250005" type="unknown" color="128,128,128" fill="0" layer="-1.00" shape="2814.097508,1956.513710 2810.873456,1960.756273"/>
    <poly id="1112250006" type="unknown" color="128,128,128" fill="0" layer="-1.00" shape="2771.877910,1935.651162 2716.873208,1910.068899 2654.443622,1881.519601"/>
    <poly id="1112250007" type="unknown" color="128,128,128" fill="0" layer="-1.00" shape="2654.443622,1881.519601 2649.040318,1882.324621 2627.271911,1908.814283"/>
    <poly id="1115336401" type="unknown" color="128,128,128" fill="1" layer="-1.00" shape="1991.078682,1357.816854 1992.220432,1356.794696 1992.430082,1356.470371 1992.492386,1356.069582 1992.386474,1355.714808 1992.111118,1355.272655 1991.685962,1354.487249 1991.201744,1353.657917 1990.873329,1353.027261 1990.811201,1352.649850 1990.670879,1352.539969 1990.451444,1352.597573 1989.419564,1353.607604 1989.144339,1353.977000 1989.192315,1354.410126 1989.781117,1355.449721 1990.466966,1356.677415 1990.760972,1357.552964 1990.872785,1357.752044 1991.078682,1357.816854"/>
    <poly id="1115336402" type="unknown" color="128,128,128" fill="1" layer="-1.00" shape="1974.013118,1361.409005 1974.478206,1362.549791 1975.159589,1364.088803 1975.135069,1364.611534 1974.648049,1365.071816 1973.847000,1365.668392 1973.714828,1365.647374 1972.915526,1364.042744 1972.445969,1363.213279 1972.528323,1362.601079 1973.174388,1361.894757 1973.720674,1361.500633 1974.013118,1361.409005"/>
    <poly id="1115336403" type="unknown" color="128,128,128" fill="1" layer="-1.00" shape="1966.715268,1348.402404 1966.921440,1347.700128 1967.135046,1347.008901 1966.684312,1345.834633 1966.226246,1344.660432 1965.431369,1344.334231 1964.636492,1344.008031 1963.899175,1344.359445 1963.154526,1344.710928 1965.225869,1349.094251 1965.970518,1348.742769 1966.715268,1348.402404"/>
    <poly id="1116337723" type="unknown" color="128,128,128" fill="1" layer="-1.00" shape="2622.974684,1913.544741 2702.296060,1988.220989 2700.874870,1989.957032 2705.942176,1994.958241 2708.165970,1994.415569 2779.458894,2061.972935 2779.455720,2068.098493 2772.443071,2069.273719 2751.081039,2071.012533 2701.821691,2021.598866 2697.432791,2025.918766 2739.242425,2067.918094 2741.332953,2071.278749 2710.266550,2070.826675 2590.859594,1952.679776 2590.937771,1949.988723 2622.974684,1913.544741"/>
    <poly id="1116337732" type="unknown" color="128,128,128" fill="0" layer="-1.00" shape="2622.974684,1913.544741 2623.562723,1912.905724"/>
    <poly id="1116337733" type="unknown" color="128,128,128" fill="0" layer="-1.00" shape="2627.271911,1908.814283 2625.312080,1910.977689 2623.562723,1912.905724"/>
    <poly id="1116337734" type="unknown" color="128,128,128" fill="1" layer="-1.00" shape="2583.219696,1960.675733 2586.022513,1961.728612 2686.999243,2061.343610 2690.066145,2068.886540 2654.621285,2065.017078 2628.192421,2060.999232 2625.387986,2060.568906 2557.211426,1993.285293 2556.540186,1991.223615 2557.029371,1988.584408 2563.204413,1981.557809 2581.419364,1961.025614 2583.219696,1960.675733"/>
    <poly id="1116337735" type="unknown" color="128,128,128" fill="0" layer="-1.00" shape="2590.859594,1952.679776 2589.979747,1953.477089"/>
    <poly id="1116337736" type="unknown" color="128,128,128" fill="0" layer="-1.00" shape="2589.979747,1953.477089 2586.929125,1956.617613 2584.191910,1959.555182"/>
    <poly id="1116337737" type="unknown" color="128,128,128" fill="0" layer="-1.00" shape="2584.191910,1959.555182 2583.219696,1960.675733"/>
    <poly id="1116337744" type="unknown" color="128,128,128" fill="1" layer="-1.00" shape="2546.022869,2001.235764 2548.632139,2000.356006 2551.370837,2000.809127 2601.429387,2050.870133 2600.307261,2055.660692 2515.361167,2041.258519 2514.659076,2039.030370 2516.056022,2036.249490 2546.022869,2001.235764"/>
    <poly id="1116337745" type="unknown" color="128,128,128" fill="0" layer="-1.00" shape="2556.540186,1991.223615 2555.433907,1992.111931"/>
    <poly id="1116337746" type="unknown" color="128,128,128" fill="0" layer="-1.00" shape="2555.433907,1992.111931 2552.161131,1995.810352 2549.033354,1999.329581"/>
    <poly id="1116337747" type="unknown" color="128,128,128" fill="0" layer="-1.00" shape="2548.632139,2000.356006 2549.033354,1999.329581"/>
    <poly id="1116337751" type="unknown" color="128,128,128" fill="0" layer="-1.00" shape="2513.983974,2042.182661 2515.361167,2041.258519"/>
    <poly id="1116337752" type="unknown" color="128,128,128" fill="0" layer="-1.00" shape="2513.134707,2039.088717 2514.659076,2039.030370"/>
    <poly id="1116501844" type="unknown" color="128,128,128" fill="0" layer="-1.00" shape="2405.248194,2063.217841 2325.934805,2050.723774 2331.358977,2022.536766 2417.795792,2037.923091"/>
    <poly id="1116501845" type="unknown" color="128,128,128" fill="0" layer="-1.00" shape="2417.386098,2040.428180 2417.795792,2037.923091"/>
    <poly id="1116501846" type="unknown" color="128,128,128" fill="0" layer="-1.00" shape="2417.795792,2037.923091 2421.217855,2038.547788 2421.977972,2036.684296"/>
    <poly id="1116501847" type="unknown" color="128,128,128" fill="0" layer="-1.00" shape="2421.977972,2036.684296 2423.923939,2037.033413 2480.407688,2047.102051 2481.024778,2047.240952 2481.554103,2047.402886 2482.098595,2047.620268 2482.717507,2047.959261 2483.278078,2048.332136 2483.721258,2048.694964 2484.091131,2049.058460 2484.431783,2049.433339 2484.765611,2049.863865 2485.085688,2050.394572 2485.376848,2050.970010 2485.586561,2051.457253 2485.752696,2051.989361 2485.881772,2052.477339 2485.982335,2053.054513 2486.038206,2053.554274 2486.043067,2054.087852 2486.017289,2054.477186 2485.948033,2054.922502 2485.878271,2055.312236 2485.778882,2055.668890 2485.657603,2056.036859 2485.485415,2056.449761 2485.233299,2056.941211 2484.785078,2057.634556 2484.350001,2058.161024 2476.006383,2067.742175 2474.765814,2069.176470"/>
    <poly id="1116501849" type="unknown" color="128,128,128" fill="0" layer="-1.00" shape="2421.217855,2038.547788 2479.993410,2049.106907 2483.857079,2050.728160 2484.519856,2053.468051 2483.766140,2055.231423"/>
    <poly id="1116501855" type="unknown" color="128,128,128" fill="0" layer="-1.00" shape="2331.358977,2022.536766 2331.957487,2020.641386"/>
    <poly id="1116506245" type="unknown" color="128,128,128" fill="1" layer="-1.00" shape="2499.980418,2036.451447 2515.845566,2017.963744 2553.908702,1974.349534 2553.961331,1972.881595 2429.185624,1874.397529 2426.589651,1872.720283 2361.442356,1954.636515 2359.235948,1960.293044 2361.567465,1962.717521 2380.405332,1982.389605 2382.701648,1983.369186 2422.611983,2025.817084 2425.960442,2026.409105 2495.692169,2038.925149 2499.980418,2036.451447"/>
    <poly id="1116506246" type="unknown" color="128,128,128" fill="0" layer="-1.00" shape="2501.153077,2037.218966 2499.980418,2036.451447"/>
    <poly id="1116506247" type="unknown" color="128,128,128" fill="0" layer="-1.00" shape="2553.908702,1974.349534 2554.698652,1974.953789"/>
    <poly id="1116506248" type="unknown" color="128,128,128" fill="0" layer="-1.00" shape="2553.961331,1972.881595 2554.461286,1972.232255"/>
    <poly id="1116506249" type="unknown" color="128,128,128" fill="0" layer="-1.00" shape="2554.698652,1974.953789 2558.353449,1977.788760 2562.104250,1980.700680"/>
    <poly id="1116506250" type="unknown" color="128,128,128" fill="0" layer="-1.00" shape="2562.104250,1980.700680 2563.204413,1981.557809"/>
    <poly id="1116506251" type="unknown" color="128,128,128" fill="0" layer="-1.00" shape="2425.133606,2028.995818 2425.960442,2026.409105"/>
    <poly id="1116506252" type="unknown" color="128,128,128" fill="0" layer="-1.00" shape="2495.228797,2041.175028 2491.616248,2044.587535 2485.053530,2050.083585"/>
    <poly id="1116506253" type="unknown" color="128,128,128" fill="0" layer="-1.00" shape="2495.692169,2038.925149 2495.228797,2041.175028"/>
    <poly id="1116506255" type="unknown" color="128,128,128" fill="1" layer="-1.00" shape="2356.483104,1969.534279 2404.224577,2019.325660 2404.049164,2021.795262 2334.552293,2009.356031 2329.172903,1995.108558 2347.740865,1970.781419 2353.076731,1966.619349 2356.483104,1969.534279"/>
    <poly id="1116506256" type="unknown" color="128,128,128" fill="0" layer="-1.00" shape="2422.611983,2025.817084 2420.872082,2025.555025"/>
    <poly id="1116506257" type="unknown" color="128,128,128" fill="0" layer="-1.00" shape="2404.049164,2021.795262 2408.189079,2023.958682"/>
    <poly id="1116506258" type="unknown" color="128,128,128" fill="0" layer="-1.00" shape="2408.189079,2023.958682 2413.957877,2024.662020 2420.872082,2025.555025"/>
    <poly id="1116506259" type="unknown" color="128,128,128" fill="0" layer="-1.00" shape="2358.516294,1960.966643 2356.337170,1963.187734 2353.882119,1965.700390"/>
    <poly id="1116506260" type="unknown" color="128,128,128" fill="0" layer="-1.00" shape="2353.882119,1965.700390 2353.076731,1966.619349"/>
    <poly id="1116506261" type="unknown" color="128,128,128" fill="0" layer="-1.00" shape="2329.172903,1995.108558 2327.091985,1991.225461"/>
    <poly id="1116506262" type="unknown" color="128,128,128" fill="0" layer="-1.00" shape="2334.552293,2009.356031 2333.842363,2012.697655"/>
    <poly id="1116506263" type="unknown" color="128,128,128" fill="1" layer="-1.00" shape="2433.012221,1862.289444 2433.086680,1864.023036 2436.918532,1867.767919 2473.633981,1896.671310 2475.515434,1897.176673 2507.147778,1857.411689 2508.160424,1854.289676 2526.994014,1830.816759 2528.322452,1825.335048 2526.959390,1822.179075 2524.859351,1821.019774 2488.205908,1803.777336 2483.091150,1801.656087 2475.483756,1810.007640 2436.643268,1859.288066 2433.012221,1862.289444"/>
    <poly id="1116506264" type="unknown" color="128,128,128" fill="0" layer="-1.00" shape="2433.086680,1864.023036 2432.158059,1865.098747"/>
    <poly id="1116506265" type="unknown" color="128,128,128" fill="0" layer="-1.00" shape="2426.589651,1872.720283 2427.449049,1871.289454"/>
    <poly id="1116506266" type="unknown" color="128,128,128" fill="0" layer="-1.00" shape="2427.449049,1871.289454 2429.189399,1869.183566 2432.158059,1865.098747"/>
    <poly id="1116506267" type="unknown" color="128,128,128" fill="0" layer="-1.00" shape="2475.515434,1897.176673 2479.228867,1899.999942 2482.218712,1902.262832"/>
    <poly id="1116506268" type="unknown" color="128,128,128" fill="0" layer="-1.00" shape="2528.322452,1825.335048 2530.640036,1825.425128"/>
    <poly id="1116506269" type="unknown" color="128,128,128" fill="0" layer="-1.00" shape="2526.959390,1822.179075 2527.746625,1820.871208"/>
    <poly id="1116506270" type="unknown" color="128,128,128" fill="0" layer="-1.00" shape="2530.640036,1825.425128 2535.513137,1827.581971 2539.221374,1829.026805"/>
    <poly id="1116506271" type="unknown" color="128,128,128" fill="0" layer="-1.00" shape="2483.091150,1801.656087 2484.011246,1800.447057"/>
    <poly id="1116506272" type="unknown" color="128,128,128" fill="0" layer="-1.00" shape="2484.011246,1800.447057 2488.009437,1795.085541 2492.007636,1789.724027"/>
    <poly id="1116506273" type="unknown" color="128,128,128" fill="1" layer="-1.00" shape="2482.941447,1903.534717 2558.667105,1963.911745 2560.728206,1964.826836 2562.797498,1963.418375 2573.977425,1950.476433 2637.338436,1877.383711 2638.176446,1872.784733 2542.323263,1829.098636 2539.899662,1829.443083 2539.319864,1830.182089 2482.218712,1902.262832 2482.941447,1903.534717"/>
    <poly id="1116506274" type="unknown" color="128,128,128" fill="0" layer="-1.00" shape="2637.338436,1877.383711 2638.840189,1878.059334"/>
    <poly id="1116506275" type="unknown" color="128,128,128" fill="0" layer="-1.00" shape="2638.840189,1878.059334 2643.093977,1879.843912 2647.620014,1881.737193"/>
    <poly id="1116506276" type="unknown" color="128,128,128" fill="0" layer="-1.00" shape="2647.620014,1881.737193 2649.040318,1882.324621"/>
    <poly id="1116506277" type="unknown" color="128,128,128" fill="0" layer="-1.00" shape="2654.443622,1881.519601 2657.858105,1877.264101"/>
    <poly id="1116506278" type="unknown" color="128,128,128" fill="0" layer="-1.00" shape="2657.858105,1877.264101 2660.004527,1874.654330 2663.304047,1870.655570"/>
    <poly id="1116506279" type="unknown" color="128,128,128" fill="0" layer="-1.00" shape="2573.977425,1950.476433 2575.433309,1951.752780"/>
    <poly id="1116506280" type="unknown" color="128,128,128" fill="0" layer="-1.00" shape="2575.433309,1951.752780 2578.595232,1954.403256 2582.566101,1959.747837"/>
    <poly id="1116506281" type="unknown" color="128,128,128" fill="0" layer="-1.00" shape="2582.566101,1959.747837 2583.219696,1960.675733"/>
    <poly id="1116506282" type="unknown" color="128,128,128" fill="0" layer="-1.00" shape="2560.728206,1964.826836 2560.547414,1965.906840"/>
    <poly id="1116506283" type="unknown" color="128,128,128" fill="0" layer="-1.00" shape="2560.547414,1965.906840 2557.389382,1969.326286 2554.461286,1972.232255"/>
    <poly id="1116511666" type="unknown" color="128,128,128" fill="0" layer="-1.00" shape="2897.173364,1944.011706 2878.086553,1963.116624 2874.448208,1965.328463 2871.715752,1965.564389 2839.299956,1950.538138 2816.441784,1940.116993 2791.551774,1928.780500 2760.053707,1913.946503 2747.422790,1901.932181 2727.596132,1883.057156 2727.251984,1879.869665 2686.392313,1840.919002 2686.469360,1838.906105 2708.478689,1813.859726"/>
    <poly id="1116511668" type="unknown" color="128,128,128" fill="0" layer="-1.00" shape="2871.861455,1912.745697 2831.402190,1870.911039 2829.203222,1870.152735 2811.038647,1851.829352 2810.556881,1849.632525 2803.354900,1842.071374 2800.587629,1841.707325 2793.617410,1834.644359 2792.929852,1831.582262 2772.217315,1810.424974 2768.710286,1809.333911 2761.907391,1802.136062 2761.148315,1799.274725 2746.420600,1784.055438"/>
    <poly id="1116511669" type="unknown" color="128,128,128" fill="0" layer="-1.00" shape="2710.809441,1811.359474 2709.662241,1812.592759 2708.478689,1813.859726"/>
    <poly id="1116511672" type="unknown" color="128,128,128" fill="0" layer="-1.00" shape="2859.834033,1977.989564 2863.379257,1973.588487"/>
    <poly id="1116511673" type="unknown" color="128,128,128" fill="0" layer="-1.00" shape="2870.209147,1967.590204 2866.368669,1970.960056 2863.379257,1973.588487"/>
    <poly id="1116511674" type="unknown" color="128,128,128" fill="0" layer="-1.00" shape="2816.441784,1940.116993 2815.280744,1942.250868"/>
    <poly id="1116511675" type="unknown" color="128,128,128" fill="0" layer="-1.00" shape="2811.070920,1950.982547 2811.768723,1949.508773"/>
    <poly id="1116511676" type="unknown" color="128,128,128" fill="0" layer="-1.00" shape="2811.768723,1949.508773 2813.460063,1946.024928 2815.280744,1942.250868"/>
    <poly id="1116511677" type="unknown" color="128,128,128" fill="0" layer="-1.00" shape="2738.192023,1903.494413 2747.422790,1901.932181"/>
    <poly id="1116511681" type="unknown" color="128,128,128" fill="1" layer="-1.00" shape="2679.945008,1847.870108 2723.599820,1889.452372 2723.616430,1896.945154 2665.058945,1868.527390 2662.785197,1866.802642 2677.067058,1849.852835 2679.945008,1847.870108"/>
    <poly id="1116511682" type="unknown" color="128,128,128" fill="0" layer="-1.00" shape="2723.616430,1896.945154 2721.795191,1900.652547"/>
    <poly id="1116511683" type="unknown" color="128,128,128" fill="0" layer="-1.00" shape="2723.616430,1896.945154 2730.202638,1900.465157"/>
    <poly id="1116511684" type="unknown" color="128,128,128" fill="0" layer="-1.00" shape="2716.873208,1910.068899 2719.012864,1905.902816"/>
    <poly id="1116511685" type="unknown" color="128,128,128" fill="0" layer="-1.00" shape="2719.012864,1905.902816 2720.706681,1902.696847 2721.795191,1900.652547"/>
    <poly id="1116511686" type="unknown" color="128,128,128" fill="0" layer="-1.00" shape="2730.202638,1900.465157 2734.638743,1902.148097 2738.192023,1903.494413"/>
    <poly id="1116511687" type="unknown" color="128,128,128" fill="0" layer="-1.00" shape="2665.058945,1868.527390 2663.304047,1870.655570"/>
    <poly id="1116511688" type="unknown" color="128,128,128" fill="0" layer="-1.00" shape="2686.072678,1841.244298 2683.335655,1844.215165 2680.359036,1847.443901"/>
    <poly id="1116511689" type="unknown" color="128,128,128" fill="0" layer="-1.00" shape="2685.774910,1838.323199 2682.041333,1834.888535 2678.729145,1831.839149"/>
    <poly id="1116514663" type="unknown" color="128,128,128" fill="0" layer="-1.00" shape="2581.777349,1761.703610 2546.958856,1809.179059 2545.541359,1812.126873 2547.901621,1813.684031 2549.279787,1814.471926 2647.804541,1860.879814 2651.195443,1861.293712 2677.707896,1830.792291 2680.878624,1827.139342 2698.299884,1807.103903 2725.711341,1766.533584"/>
    <poly id="1116514664" type="unknown" color="128,128,128" fill="1" layer="-1.00" shape="2498.619219,1790.364196 2495.691598,1786.888964 2495.362421,1782.945386 2504.064196,1771.582275 2506.888755,1771.790018 2522.539618,1752.225945 2522.887645,1748.576363 2536.075964,1733.125843 2538.946749,1731.965776 2542.541542,1733.022546 2572.134058,1756.621830 2572.189615,1758.700224 2537.998254,1804.991614 2534.787862,1807.499943 2528.318620,1805.579969 2498.619219,1790.364196"/>
    <poly id="1116514665" type="unknown" color="128,128,128" fill="0" layer="-1.00" shape="2581.040179,1746.746678 2578.451612,1748.304373 2576.633976,1747.564936 2548.810240,1725.783861 2546.194920,1721.983366 2546.761886,1718.220624 2588.390841,1668.181930"/>
    <poly id="1116514666" type="unknown" color="128,128,128" fill="0" layer="-1.00" shape="2678.729145,1831.839149 2677.707896,1830.792291"/>
    <poly id="1116514667" type="unknown" color="128,128,128" fill="0" layer="-1.00" shape="2651.195443,1861.293712 2652.602301,1862.014668"/>
    <poly id="1116514668" type="unknown" color="128,128,128" fill="0" layer="-1.00" shape="2647.804541,1860.879814 2646.586478,1862.380567"/>
    <poly id="1116514669" type="unknown" color="128,128,128" fill="0" layer="-1.00" shape="2662.785197,1866.802642 2661.960709,1866.432144"/>
    <poly id="1116514670" type="unknown" color="128,128,128" fill="0" layer="-1.00" shape="2652.602301,1862.014668 2656.888346,1864.121361 2661.960709,1866.432144"/>
    <poly id="1116514671" type="unknown" color="128,128,128" fill="0" layer="-1.00" shape="2638.176446,1872.784733 2639.916269,1870.612213"/>
    <poly id="1116514672" type="unknown" color="128,128,128" fill="0" layer="-1.00" shape="2646.586478,1862.380567 2642.830875,1867.017153 2639.916269,1870.612213"/>
    <poly id="1116514673" type="unknown" color="128,128,128" fill="0" layer="-1.00" shape="2726.856312,1767.479275 2725.711341,1766.533584 2725.830954,1763.553114 2726.373927,1762.792229"/>
    <poly id="1116514674" type="unknown" color="128,128,128" fill="0" layer="-1.00" shape="2726.856312,1767.479275 2729.663655,1769.832888 2733.630929,1773.165412"/>
    <poly id="1116514675" type="unknown" color="128,128,128" fill="0" layer="-1.00" shape="2733.630929,1773.165412 2736.148631,1775.110320 2718.019643,1801.210877"/>
    <poly id="1116514677" type="unknown" color="128,128,128" fill="0" layer="-1.00" shape="2590.725632,1667.738258 2594.962666,1668.466828 2604.145624,1675.320453 2606.988180,1675.083399 2621.774201,1686.155114 2622.695496,1689.915445 2623.882024,1689.782379"/>
    <poly id="1116514678" type="unknown" color="128,128,128" fill="0" layer="-1.00" shape="2623.882024,1689.782379 2627.182147,1692.298222 2630.275584,1694.660305"/>
    <poly id="1116514679" type="unknown" color="128,128,128" fill="0" layer="-1.00" shape="2573.108632,1755.756950 2574.738704,1753.607643 2577.498773,1749.947252"/>
    <poly id="1116514680" type="unknown" color="128,128,128" fill="0" layer="-1.00" shape="2573.644390,1759.042744 2576.998044,1760.190666 2580.851823,1761.511916"/>
    <poly id="1116514681" type="unknown" color="128,128,128" fill="0" layer="-1.00" shape="2581.777349,1761.703610 2580.851823,1761.511916"/>
    <poly id="1116514682" type="unknown" color="128,128,128" fill="0" layer="-1.00" shape="2572.189615,1758.700224 2573.644390,1759.042744"/>
    <poly id="1116514683" type="unknown" color="128,128,128" fill="0" layer="-1.00" shape="2573.108632,1755.756950 2572.134058,1756.621830"/>
    <poly id="1116514684" type="unknown" color="128,128,128" fill="0" layer="-1.00" shape="2578.451612,1748.304373 2577.498773,1749.947252"/>
    <poly id="1116514685" type="unknown" color="128,128,128" fill="0" layer="-1.00" shape="2527.746625,1820.871208 2530.917000,1814.772410 2533.020913,1810.717751"/>
    <poly id="1116514686" type="unknown" color="128,128,128" fill="0" layer="-1.00" shape="2537.242569,1808.155750 2540.511568,1809.671285 2545.091340,1811.819688"/>
    <poly id="1116514687" type="unknown" color="128,128,128" fill="0" layer="-1.00" shape="2547.340882,1815.712447 2545.290504,1821.623172 2543.291042,1827.488966"/>
    <poly id="1116514688" type="unknown" color="128,128,128" fill="0" layer="-1.00" shape="2542.323263,1829.098636 2543.291042,1827.488966"/>
    <poly id="1116514689" type="unknown" color="128,128,128" fill="0" layer="-1.00" shape="2547.901621,1813.684031 2547.340882,1815.712447"/>
    <poly id="1116514690" type="unknown" color="128,128,128" fill="0" layer="-1.00" shape="2545.091340,1811.819688 2545.541359,1812.126873"/>
    <poly id="1116514691" type="unknown" color="128,128,128" fill="0" layer="-1.00" shape="2533.020913,1810.717751 2534.787862,1807.499943"/>
    <poly id="1116514692" type="unknown" color="128,128,128" fill="0" layer="-1.00" shape="2534.787862,1807.499943 2537.242569,1808.155750"/>
    <poly id="1116514693" type="unknown" color="128,128,128" fill="0" layer="-1.00" shape="2492.007636,1789.724027 2495.691598,1786.888964"/>