<?xml version="1.0" encoding="UTF-8"?>

<!-- generated on 2025-06-29 00:40:22 by Eclipse SUMO netconvert Version 1.22.0
<netconvertConfiguration xmlns:xsi="http://www.w3.org/2001/XMLSchema-instance" xsi:noNamespaceSchemaLocation="http://sumo.dlr.de/xsd/netconvertConfiguration.xsd">

    <input>
        <osm-files value="map.osm"/>
    </input>

    <output>
        <output-file value="map.net.xml"/>
    </output>

    <projection>
        <proj.utm value="true"/>
    </projection>

</netconvertConfiguration>
-->

<net version="1.20" junctionCornerDetail="5" limitTurnSpeed="5.50" xmlns:xsi="http://www.w3.org/2001/XMLSchema-instance" xsi:noNamespaceSchemaLocation="http://sumo.dlr.de/xsd/net_file.xsd">

    <location netOffset="-446734.64,-5413138.67" convBoundary="0.00,0.00,4751.78,3132.42" origBoundary="2.273661,48.868920,2.338282,48.897141" projParameter="+proj=utm +zone=31 +ellps=WGS84 +datum=WGS84 +units=m +no_defs"/>

    <type id="highway.cycleway" priority="1" numLanes="1" speed="5.56" allow="bicycle" oneway="0" width="2.00"/>
    <type id="highway.footway" priority="1" numLanes="1" speed="2.78" allow="pedestrian" oneway="1" width="2.00"/>
    <type id="highway.living_street" priority="2" numLanes="1" speed="2.78" disallow="tram rail_urban rail rail_electric rail_fast ship container cable_car subway aircraft wheelchair scooter drone" oneway="0"/>
    <type id="highway.pedestrian" priority="1" numLanes="1" speed="2.78" allow="pedestrian" oneway="1" width="2.00"/>
    <type id="highway.primary" priority="12" numLanes="2" speed="27.78" disallow="tram rail_urban rail rail_electric rail_fast ship container cable_car subway aircraft wheelchair scooter drone" oneway="0"/>
    <type id="highway.residential" priority="3" numLanes="1" speed="13.89" disallow="tram rail_urban rail rail_electric rail_fast ship container cable_car subway aircraft wheelchair scooter drone" oneway="0"/>
    <type id="highway.secondary" priority="11" numLanes="1" speed="27.78" disallow="tram rail_urban rail rail_electric rail_fast ship container cable_car subway aircraft wheelchair scooter drone" oneway="0"/>
    <type id="highway.service" priority="1" numLanes="1" speed="5.56" allow="pedestrian delivery bicycle" oneway="0"/>
    <type id="highway.steps" priority="1" numLanes="1" speed="1.39" allow="pedestrian" oneway="1" width="2.00"/>
    <type id="highway.tertiary" priority="10" numLanes="1" speed="22.22" disallow="tram rail_urban rail rail_electric rail_fast ship container cable_car subway aircraft wheelchair scooter drone" oneway="0"/>
    <type id="highway.unclassified" priority="4" numLanes="1" speed="13.89" disallow="tram rail_urban rail rail_electric rail_fast ship container cable_car subway aircraft wheelchair scooter drone" oneway="0"/>
    <type id="railway.rail" priority="20" numLanes="1" speed="44.44" allow="rail" oneway="1"/>
    <type id="railway.subway" priority="18" numLanes="1" speed="27.78" allow="subway" oneway="1"/>
    <type id="railway.tram" priority="17" numLanes="1" speed="13.89" allow="tram" oneway="1"/>

    <edge id=":10211792538_0" function="internal">
        <lane id=":10211792538_0_0" index="0" disallow="tram rail_urban rail rail_electric rail_fast ship container cable_car subway aircraft wheelchair scooter drone" speed="8.33" length="5.06" shape="2427.19,1867.52 2431.13,1870.70"/>
    </edge>
    <edge id=":10211841781_0" function="internal">
        <lane id=":10211841781_0_0" index="0" disallow="tram rail_urban rail rail_electric rail_fast ship container cable_car subway aircraft wheelchair scooter drone" speed="8.33" length="4.01" shape="2735.14,1899.38 2734.49,1903.34"/>
    </edge>
    <edge id=":10211841783_0" function="internal">
        <lane id=":10211841783_0_0" index="0" disallow="tram rail_urban rail rail_electric rail_fast ship container cable_car subway aircraft wheelchair scooter drone" speed="8.33" length="3.76" shape="2682.46,1843.37 2685.16,1845.98"/>
    </edge>
    <edge id=":10211845892_0" function="internal">
        <lane id=":10211845892_0_0" index="0" disallow="tram rail_urban rail rail_electric rail_fast ship container cable_car subway aircraft wheelchair scooter drone" speed="8.33" length="3.03" shape="2680.23,1828.69 2677.94,1826.70"/>
    </edge>
    <edge id=":10211845892_1" function="internal">
        <lane id=":10211845892_1_0" index="0" disallow="tram rail_urban rail rail_electric rail_fast ship container cable_car subway aircraft wheelchair scooter drone" speed="8.33" length="3.04" shape="2680.05,1824.29 2682.33,1826.28"/>
    </edge>
    <edge id=":10211867021_0" function="internal">
        <lane id=":10211867021_0_0" index="0" disallow="tram rail_urban rail rail_electric rail_fast ship container cable_car subway aircraft wheelchair scooter drone" speed="8.33" length="5.28" shape="2643.92,1869.28 2639.12,1867.07"/>
    </edge>
    <edge id=":10211867021_1" function="internal">
        <lane id=":10211867021_1_0" index="0" disallow="tram rail_urban rail rail_electric rail_fast ship container cable_car subway aircraft wheelchair scooter drone" speed="8.33" length="5.29" shape="2640.46,1864.17 2645.26,1866.38"/>
    </edge>
    <edge id=":10218195091_0" function="internal">
        <lane id=":10218195091_0_0" index="0" disallow="tram rail_urban rail rail_electric rail_fast ship container cable_car subway aircraft wheelchair scooter drone" speed="13.89" length="5.33" shape="2008.90,1272.47 2004.72,1269.16"/>
    </edge>
    <edge id=":10218195091_1" function="internal">
        <lane id=":10218195091_1_0" index="0" disallow="tram rail_urban rail rail_electric rail_fast ship container cable_car subway aircraft wheelchair scooter drone" speed="13.89" length="5.32" shape="2006.70,1266.65 2010.87,1269.95"/>
    </edge>
    <edge id=":10218266245_0" function="internal">
        <lane id=":10218266245_0_0" index="0" disallow="tram rail_urban rail rail_electric rail_fast ship container cable_car subway aircraft wheelchair scooter drone" speed="8.33" length="5.30" shape="1973.17,1309.13 1976.17,1304.76"/>
    </edge>
    <edge id=":10218266248_0" function="internal">
        <lane id=":10218266248_0_0" index="0" disallow="tram rail_urban rail rail_electric rail_fast ship container cable_car subway aircraft wheelchair scooter drone" speed="8.33" length="5.36" shape="1956.71,1317.97 1954.32,1313.15"/>
        <lane id=":10218266248_0_1" index="1" disallow="tram rail_urban rail rail_electric rail_fast ship container cable_car subway aircraft wheelchair scooter drone" speed="8.33" length="5.36" shape="1959.56,1316.52 1957.20,1311.74"/>
    </edge>
    <edge id=":10218266248_2" function="internal">
        <lane id=":10218266248_2_0" index="0" allow="bus bicycle" speed="8.33" length="5.27" shape="1962.94,1308.93 1965.27,1313.63"/>
        <lane id=":10218266248_2_1" index="1" disallow="tram rail_urban rail rail_electric rail_fast ship container cable_car subway aircraft wheelchair scooter drone" speed="8.33" length="5.27" shape="1960.07,1310.33 1962.41,1315.08"/>
    </edge>
    <edge id=":10218316449_0" function="internal">
        <lane id=":10218316449_0_0" index="0" disallow="tram rail_urban rail rail_electric rail_fast ship container cable_car subway aircraft wheelchair scooter drone" speed="8.33" length="6.39" shape="1940.91,1239.11 1936.78,1243.98"/>
    </edge>
    <edge id=":10218316452_0" function="internal">
        <lane id=":10218316452_0_0" index="0" disallow="tram rail_urban rail rail_electric rail_fast ship container cable_car subway aircraft wheelchair scooter drone" speed="8.33" length="5.52" shape="1918.68,1242.06 1916.26,1237.10"/>
        <lane id=":10218316452_0_1" index="1" disallow="tram rail_urban rail rail_electric rail_fast ship container cable_car subway aircraft wheelchair scooter drone" speed="8.33" length="5.52" shape="1921.56,1240.65 1919.13,1235.70"/>
    </edge>
    <edge id=":10218316452_2" function="internal">
        <lane id=":10218316452_2_0" index="0" allow="bus bicycle" speed="8.33" length="5.52" shape="1924.88,1232.89 1927.30,1237.84"/>
        <lane id=":10218316452_2_1" index="1" disallow="tram rail_urban rail rail_electric rail_fast ship container cable_car subway aircraft wheelchair scooter drone" speed="8.33" length="5.52" shape="1922.01,1234.29 1924.43,1239.25"/>
    </edge>
    <edge id=":10218349660_0" function="internal">
        <lane id=":10218349660_0_0" index="0" disallow="tram rail_urban rail rail_electric rail_fast ship container cable_car subway aircraft wheelchair scooter drone" speed="8.33" length="0.30" shape="1886.31,1192.22 1886.52,1192.01"/>
    </edge>
    <edge id=":10259656765_0" function="internal">
        <lane id=":10259656765_0_0" index="0" disallow="tram rail_urban rail rail_electric rail_fast ship container cable_car subway aircraft wheelchair scooter drone" speed="8.33" length="9.68" shape="2851.54,1302.69 2842.00,1301.02"/>
        <lane id=":10259656765_0_1" index="1" disallow="tram rail_urban rail rail_electric rail_fast ship container cable_car subway aircraft wheelchair scooter drone" speed="8.33" length="9.68" shape="2852.09,1299.53 2842.55,1297.86"/>
    </edge>
    <edge id=":10259656765_2" function="internal">
        <lane id=":10259656765_2_0" index="0" disallow="tram rail_urban rail rail_electric rail_fast ship container cable_car subway aircraft wheelchair scooter drone" speed="8.33" length="9.69" shape="2843.65,1291.56 2853.20,1293.23"/>
        <lane id=":10259656765_2_1" index="1" disallow="tram rail_urban rail rail_electric rail_fast ship container cable_car subway aircraft wheelchair scooter drone" speed="8.33" length="9.69" shape="2843.10,1294.71 2852.64,1296.38"/>
    </edge>
    <edge id=":10259656803_0" function="internal">
        <lane id=":10259656803_0_0" index="0" disallow="tram rail_urban rail rail_electric rail_fast ship container cable_car subway aircraft wheelchair scooter drone" speed="8.33" length="4.02" shape="2695.75,1454.81 2699.04,1452.49"/>
    </edge>
    <edge id=":10259709503_0" function="internal">
        <lane id=":10259709503_0_0" index="0" allow="pedestrian delivery bicycle" speed="8.33" length="6.49" shape="2321.45,1530.37 2317.46,1535.49"/>
    </edge>
    <edge id=":10259709503_1" function="internal">
        <lane id=":10259709503_1_0" index="0" allow="pedestrian delivery bicycle" speed="3.65" length="1.44" shape="2321.45,1530.37 2320.08,1530.82"/>
    </edge>
    <edge id=":10259709503_4" function="internal">
        <lane id=":10259709503_4_0" index="0" allow="pedestrian delivery bicycle" speed="3.65" length="3.23" shape="2320.08,1530.82 2319.21,1530.65 2318.82,1529.84 2318.93,1528.40"/>
    </edge>
    <edge id=":10259709503_2" function="internal">
        <lane id=":10259709503_2_0" index="0" allow="pedestrian delivery bicycle" speed="8.33" length="6.49" shape="2314.94,1533.52 2318.93,1528.40"/>
    </edge>
    <edge id=":10259709503_3" function="internal">
        <lane id=":10259709503_3_0" index="0" allow="pedestrian delivery bicycle" speed="3.65" length="1.44" shape="2314.94,1533.52 2316.31,1533.06"/>
    </edge>
    <edge id=":10259709503_5" function="internal">
        <lane id=":10259709503_5_0" index="0" allow="pedestrian delivery bicycle" speed="3.65" length="3.23" shape="2316.31,1533.06 2317.18,1533.24 2317.57,1534.05 2317.46,1535.49"/>
    </edge>
    <edge id=":10259972039_0" function="internal">
        <lane id=":10259972039_0_0" index="0" disallow="tram rail_urban rail rail_electric rail_fast ship container cable_car subway aircraft wheelchair scooter drone" speed="8.33" length="4.64" shape="2285.43,1219.39 2289.13,1222.18"/>
    </edge>
    <edge id=":10259972075_0" function="internal">
        <lane id=":10259972075_0_0" index="0" allow="pedestrian delivery bicycle" speed="5.56" length="3.94" shape="2477.56,1228.31 2476.37,1232.07"/>
    </edge>
    <edge id=":10259972075_1" function="internal">
        <lane id=":10259972075_1_0" index="0" allow="pedestrian delivery bicycle" speed="3.65" length="1.44" shape="2477.56,1228.31 2476.44,1229.22"/>
    </edge>
    <edge id=":10259972075_4" function="internal">
        <lane id=":10259972075_4_0" index="0" allow="pedestrian delivery bicycle" speed="3.65" length="3.23" shape="2476.44,1229.22 2475.56,1229.36 2474.91,1228.73 2474.51,1227.35"/>
    </edge>
    <edge id=":10259972075_2" function="internal">
        <lane id=":10259972075_2_0" index="0" allow="pedestrian delivery bicycle" speed="5.56" length="3.98" shape="2473.31,1231.14 2474.51,1227.35"/>
    </edge>
    <edge id=":10259972075_3" function="internal">
        <lane id=":10259972075_3_0" index="0" allow="pedestrian delivery bicycle" speed="3.65" length="1.44" shape="2473.31,1231.14 2474.42,1230.22"/>
    </edge>
    <edge id=":10259972075_5" function="internal">
        <lane id=":10259972075_5_0" index="0" allow="pedestrian delivery bicycle" speed="3.65" length="3.23" shape="2474.42,1230.22 2475.30,1230.07 2475.95,1230.69 2476.37,1232.07"/>
    </edge>
    <edge id=":10261890298_0" function="internal">
        <lane id=":10261890298_0_0" index="0" disallow="tram rail_urban rail rail_electric rail_fast ship container cable_car subway aircraft wheelchair scooter drone" speed="8.33" length="2.06" shape="2564.14,1243.30 2562.17,1242.69"/>
    </edge>
    <edge id=":10261890298_1" function="internal">
        <lane id=":10261890298_1_0" index="0" disallow="tram rail_urban rail rail_electric rail_fast ship container cable_car subway aircraft wheelchair scooter drone" speed="8.33" length="2.05" shape="2563.13,1239.63 2565.09,1240.25"/>
    </edge>
    <edge id=":10292732216_0" function="internal">
        <lane id=":10292732216_0_0" index="0" disallow="tram rail_urban rail rail_electric rail_fast ship container cable_car subway aircraft wheelchair scooter drone" speed="8.33" length="0.30" shape="2273.09,1644.05 2272.81,1644.15"/>
    </edge>
    <edge id=":10292732216_1" function="internal">
        <lane id=":10292732216_1_0" index="0" disallow="tram rail_urban rail rail_electric rail_fast ship container cable_car subway aircraft wheelchair scooter drone" speed="8.33" length="0.30" shape="2271.79,1641.11 2272.07,1641.02"/>
    </edge>
    <edge id=":10292732217_0" function="internal">
        <lane id=":10292732217_0_0" index="0" disallow="tram rail_urban rail rail_electric rail_fast ship container cable_car subway aircraft wheelchair scooter drone" speed="8.33" length="0.31" width="4.50" shape="2295.47,1668.32 2295.27,1668.55"/>
    </edge>
    <edge id=":10292732217_1" function="internal">
        <lane id=":10292732217_1_0" index="0" disallow="tram rail_urban rail rail_electric rail_fast ship container cable_car subway aircraft wheelchair scooter drone" speed="8.33" length="0.29" width="4.50" shape="2291.80,1665.68 2291.99,1665.46"/>
    </edge>
    <edge id=":10292732218_0" function="internal">
        <lane id=":10292732218_0_0" index="0" disallow="tram rail_urban rail rail_electric rail_fast ship container cable_car subway aircraft wheelchair scooter drone" speed="8.33" length="0.10" shape="2319.72,1657.93 2319.72,1657.93"/>
    </edge>
    <edge id=":10292732218_1" function="internal">
        <lane id=":10292732218_1_0" index="0" disallow="tram rail_urban rail rail_electric rail_fast ship container cable_car subway aircraft wheelchair scooter drone" speed="8.33" length="0.10" shape="2321.75,1655.46 2321.75,1655.46"/>
    </edge>
    <edge id=":10292732219_0" function="internal">
        <lane id=":10292732219_0_0" index="0" disallow="tram rail_urban rail rail_electric rail_fast ship container cable_car subway aircraft wheelchair scooter drone" speed="8.33" length="0.29" shape="2317.65,1630.02 2317.37,1630.12"/>
    </edge>
    <edge id=":10292732219_1" function="internal">
        <lane id=":10292732219_1_0" index="0" disallow="tram rail_urban rail rail_electric rail_fast ship container cable_car subway aircraft wheelchair scooter drone" speed="8.33" length="0.30" shape="2316.32,1627.09 2316.61,1627.00"/>
    </edge>
    <edge id=":10292732220_0" function="internal">
        <lane id=":10292732220_0_0" index="0" disallow="tram rail_urban rail rail_electric rail_fast ship container cable_car subway aircraft wheelchair scooter drone" speed="8.33" length="0.31" shape="2252.66,1599.69 2252.42,1599.50"/>
    </edge>
    <edge id=":10292732220_1" function="internal">
        <lane id=":10292732220_1_0" index="0" disallow="tram rail_urban rail rail_electric rail_fast ship container cable_car subway aircraft wheelchair scooter drone" speed="8.33" length="0.29" shape="2254.42,1597.00 2254.65,1597.18"/>
    </edge>
    <edge id=":10292732221_0" function="internal">
        <lane id=":10292732221_0_0" index="0" disallow="tram rail_urban rail rail_electric rail_fast ship container cable_car subway aircraft wheelchair scooter drone" speed="8.33" length="0.30" shape="2269.94,1594.89 2269.78,1595.14"/>
    </edge>
    <edge id=":10787250444_0" function="internal">
        <lane id=":10787250444_0_0" index="0" disallow="tram rail_urban rail rail_electric rail_fast ship container cable_car subway aircraft wheelchair scooter drone" speed="8.33" length="8.63" shape="1964.74,1650.31 1957.68,1645.35"/>
    </edge>
    <edge id=":10787250445_0" function="internal">
        <lane id=":10787250445_0_0" index="0" disallow="tram rail_urban rail rail_electric rail_fast ship container cable_car subway aircraft wheelchair scooter drone" speed="8.33" length="6.49" shape="1966.66,1639.20 1967.98,1645.55"/>
    </edge>
    <edge id=":10787724522_0" function="internal">
        <lane id=":10787724522_0_0" index="0" allow="pedestrian delivery bicycle" speed="8.33" length="4.83" shape="1731.90,1221.39 1728.11,1218.38"/>
    </edge>
    <edge id=":10787724522_1" function="internal">
        <lane id=":10787724522_1_0" index="0" allow="pedestrian delivery bicycle" speed="3.65" length="1.44" shape="1731.90,1221.39 1731.46,1220.02"/>
    </edge>
    <edge id=":10787724522_4" function="internal">
        <lane id=":10787724522_4_0" index="0" allow="pedestrian delivery bicycle" speed="3.65" length="3.23" shape="1731.46,1220.02 1731.64,1219.14 1732.45,1218.76 1733.89,1218.88"/>
    </edge>
    <edge id=":10787724522_2" function="internal">
        <lane id=":10787724522_2_0" index="0" allow="pedestrian delivery bicycle" speed="8.33" length="4.83" shape="1730.10,1215.88 1733.89,1218.88"/>
    </edge>
    <edge id=":10787724522_3" function="internal">
        <lane id=":10787724522_3_0" index="0" allow="pedestrian delivery bicycle" speed="3.65" length="1.44" shape="1730.10,1215.88 1730.55,1217.25"/>
    </edge>
    <edge id=":10787724522_5" function="internal">
        <lane id=":10787724522_5_0" index="0" allow="pedestrian delivery bicycle" speed="3.65" length="3.23" shape="1730.55,1217.25 1730.36,1218.13 1729.55,1218.50 1728.11,1218.38"/>
    </edge>
    <edge id=":10801601834_0" function="internal">
        <lane id=":10801601834_0_0" index="0" allow="tram" speed="13.89" length="0.30" shape="1187.01,1708.36 1186.79,1708.16"/>
    </edge>
    <edge id=":10889855916_0" function="internal">
        <lane id=":10889855916_0_0" index="0" disallow="tram rail_urban rail rail_electric rail_fast ship container cable_car subway aircraft wheelchair scooter drone" speed="5.98" length="1.74" shape="1522.80,1502.39 1521.45,1501.29"/>
    </edge>
    <edge id=":10889855916_1" function="internal">
        <lane id=":10889855916_1_0" index="0" disallow="tram rail_urban rail rail_electric rail_fast ship container cable_car subway aircraft wheelchair scooter drone" speed="9.29" length="4.56" shape="1520.49,1498.06 1521.82,1498.18 1522.70,1498.46 1523.50,1498.97 1524.61,1499.75"/>
    </edge>
    <edge id=":10890139467_0" function="internal">
        <lane id=":10890139467_0_0" index="0" disallow="tram rail_urban rail rail_electric rail_fast ship container cable_car subway aircraft wheelchair scooter drone" speed="8.33" length="4.08" shape="1539.80,1705.38 1542.44,1702.27"/>
    </edge>
    <edge id=":1107024857_0" function="internal">
        <lane id=":1107024857_0_0" index="0" disallow="tram rail_urban rail rail_electric rail_fast ship container cable_car subway aircraft wheelchair scooter drone" speed="8.33" length="4.81" shape="2539.92,1811.58 2540.38,1810.24 2540.80,1809.35 2541.35,1808.53 2542.20,1807.39"/>
    </edge>
    <edge id=":1107024863_0" function="internal">
        <lane id=":1107024863_0_0" index="0" disallow="tram rail_urban rail rail_electric rail_fast ship container cable_car subway aircraft wheelchair scooter drone" speed="8.33" length="5.22" shape="2533.72,1829.90 2534.67,1828.67 2535.26,1827.78 2535.67,1826.80 2536.09,1825.32"/>
    </edge>
    <edge id=":1107024867_0" function="internal">
        <lane id=":1107024867_0_0" index="0" disallow="tram rail_urban rail rail_electric rail_fast ship container cable_car subway aircraft wheelchair scooter drone" speed="8.33" length="5.97" shape="1967.08,1633.09 1966.49,1634.75 1966.21,1635.96 1966.24,1637.18 1966.59,1638.89"/>
    </edge>
    <edge id=":1107432316_0" function="internal">
        <lane id=":1107432316_0_0" index="0" disallow="tram rail_urban rail rail_electric rail_fast ship container cable_car subway aircraft wheelchair scooter drone" speed="8.33" length="10.39" shape="1893.56,1737.41 1883.34,1739.30"/>
    </edge>
    <edge id=":1107432316_1" function="internal">
        <lane id=":1107432316_1_0" index="0" disallow="tram rail_urban rail rail_electric rail_fast ship container cable_car subway aircraft wheelchair scooter drone" speed="3.65" length="1.44" shape="1893.56,1737.41 1892.23,1736.83"/>
    </edge>
    <edge id=":1107432316_6" function="internal">
        <lane id=":1107432316_6_0" index="0" disallow="tram rail_urban rail rail_electric rail_fast ship container cable_car subway aircraft wheelchair scooter drone" speed="3.65" length="3.23" shape="1892.23,1736.83 1891.70,1736.12 1891.95,1735.26 1892.99,1734.26"/>
    </edge>
    <edge id=":1107432316_2" function="internal">
        <lane id=":1107432316_2_0" index="0" disallow="tram rail_urban rail rail_electric rail_fast ship container cable_car subway aircraft wheelchair scooter drone" speed="6.22" length="8.43" shape="1887.39,1729.51 1888.03,1731.91 1889.18,1733.51 1890.83,1734.29 1892.99,1734.26"/>
    </edge>
    <edge id=":1107432316_3" function="internal">
        <lane id=":1107432316_3_0" index="0" disallow="tram rail_urban rail rail_electric rail_fast ship container cable_car subway aircraft wheelchair scooter drone" speed="7.47" length="11.76" shape="1887.39,1729.51 1887.60,1733.42 1886.99,1736.35 1885.57,1738.31 1883.34,1739.30"/>
    </edge>
    <edge id=":1107432316_4" function="internal">
        <lane id=":1107432316_4_0" index="0" disallow="tram rail_urban rail rail_electric rail_fast ship container cable_car subway aircraft wheelchair scooter drone" speed="8.33" length="10.42" shape="1882.74,1736.15 1892.99,1734.26"/>
    </edge>
    <edge id=":1107432316_5" function="internal">
        <lane id=":1107432316_5_0" index="0" disallow="tram rail_urban rail rail_electric rail_fast ship container cable_car subway aircraft wheelchair scooter drone" speed="3.65" length="1.44" shape="1882.74,1736.15 1884.07,1736.72"/>
    </edge>
    <edge id=":1107432316_7" function="internal">
        <lane id=":1107432316_7_0" index="0" disallow="tram rail_urban rail rail_electric rail_fast ship container cable_car subway aircraft wheelchair scooter drone" speed="3.65" length="3.23" shape="1884.07,1736.72 1884.61,1737.43 1884.37,1738.29 1883.34,1739.30"/>
    </edge>
    <edge id=":1107432319_0" function="internal">
        <lane id=":1107432319_0_0" index="0" disallow="tram rail_urban rail rail_electric rail_fast ship container cable_car subway aircraft wheelchair scooter drone" speed="8.33" length="5.02" shape="1892.91,1703.60 1891.71,1704.44 1891.02,1705.19 1890.52,1706.11 1889.89,1707.46"/>
    </edge>
    <edge id=":1107432319_1" function="internal">
        <lane id=":1107432319_1_0" index="0" disallow="tram rail_urban rail rail_electric rail_fast ship container cable_car subway aircraft wheelchair scooter drone" speed="3.65" length="4.67" shape="1892.91,1703.60 1891.47,1703.56 1890.71,1703.09 1890.62,1702.20 1891.21,1700.89"/>
    </edge>
    <edge id=":1107432319_2" function="internal">
        <lane id=":1107432319_2_0" index="0" disallow="tram rail_urban rail rail_electric rail_fast ship container cable_car subway aircraft wheelchair scooter drone" speed="8.33" length="5.58" shape="1887.33,1704.82 1888.63,1703.85 1889.30,1702.90 1889.96,1701.93 1891.21,1700.89"/>
    </edge>
    <edge id=":1107432319_3" function="internal">
        <lane id=":1107432319_3_0" index="0" disallow="tram rail_urban rail rail_electric rail_fast ship container cable_car subway aircraft wheelchair scooter drone" speed="4.63" length="7.02" shape="1887.33,1704.82 1889.45,1703.91 1890.58,1704.04 1890.73,1705.23 1889.89,1707.46"/>
    </edge>
    <edge id=":11251066152_0" function="internal">
        <lane id=":11251066152_0_0" index="0" allow="tram" speed="13.89" length="0.30" shape="367.29,652.35 367.10,652.12"/>
    </edge>
    <edge id=":11251066153_0" function="internal">
        <lane id=":11251066153_0_0" index="0" allow="tram" speed="13.89" length="0.30" shape="364.44,654.59 364.26,654.36"/>
    </edge>
    <edge id=":11297920749_0" function="internal">
        <lane id=":11297920749_0_0" index="0" allow="tram" speed="13.89" length="0.30" shape="1916.42,2100.24 1916.18,2100.07"/>
    </edge>
    <edge id=":11297920750_0" function="internal">
        <lane id=":11297920750_0_0" index="0" allow="tram" speed="13.89" length="0.30" shape="1918.48,2097.30 1918.24,2097.12"/>
    </edge>
    <edge id=":11298541101_0" function="internal">
        <lane id=":11298541101_0_0" index="0" disallow="tram rail_urban rail rail_electric rail_fast ship container cable_car subway aircraft wheelchair scooter drone" speed="13.89" length="8.15" shape="1772.78,2026.18 1770.37,2026.08 1768.70,2026.11 1767.07,2026.39 1764.74,2027.01"/>
    </edge>
    <edge id=":11298541101_1" function="internal">
        <lane id=":11298541101_1_0" index="0" disallow="tram rail_urban rail rail_electric rail_fast ship container cable_car subway aircraft wheelchair scooter drone" speed="8.63" length="6.22" shape="1772.78,2026.18 1771.32,2025.63 1770.87,2024.39 1770.60,2022.78 1769.67,2021.08"/>
        <lane id=":11298541101_1_1" index="1" disallow="tram rail_urban rail rail_electric rail_fast ship container cable_car subway aircraft wheelchair scooter drone" speed="7.62" length="6.22" shape="1772.92,2022.98 1773.75,2022.72 1773.82,2021.84 1773.11,2020.34 1771.65,2018.22"/>
    </edge>
    <edge id=":11298541147_0" function="internal">
        <lane id=":11298541147_0_0" index="0" disallow="tram rail_urban rail rail_electric rail_fast ship container cable_car subway aircraft wheelchair scooter drone" speed="5.74" length="6.73" shape="1813.59,2013.65 1815.67,2014.91 1817.36,2015.51 1818.68,2015.45 1819.62,2014.73"/>
    </edge>
    <edge id=":11298541147_1" function="internal">
        <lane id=":11298541147_1_0" index="0" disallow="tram rail_urban rail rail_electric rail_fast ship container cable_car subway aircraft wheelchair scooter drone" speed="13.89" length="9.17" shape="1813.59,2013.65 1821.11,2018.88"/>
        <lane id=":11298541147_1_1" index="1" disallow="tram rail_urban rail rail_electric rail_fast ship container cable_car subway aircraft wheelchair scooter drone" speed="13.89" length="9.17" shape="1811.75,2016.28 1819.29,2021.51"/>
    </edge>
    <edge id=":11298541168_0" function="internal">
        <lane id=":11298541168_0_0" index="0" disallow="tram rail_urban rail rail_electric rail_fast ship container cable_car subway aircraft wheelchair scooter drone" speed="11.11" length="12.33" shape="1772.72,1998.95 1776.01,2000.41 1778.33,2001.27 1780.74,2001.85 1784.29,2002.46"/>
        <lane id=":11298541168_0_1" index="1" disallow="tram rail_urban rail rail_electric rail_fast ship container cable_car subway aircraft wheelchair scooter drone" speed="11.11" length="12.33" shape="1771.85,2002.07 1775.24,2003.56 1777.64,2004.43 1780.12,2005.00 1783.77,2005.61"/>
    </edge>
    <edge id=":11298541168_2" function="internal">
        <lane id=":11298541168_2_0" index="0" disallow="tram rail_urban rail rail_electric rail_fast ship container cable_car subway aircraft wheelchair scooter drone" speed="13.89" length="10.26" shape="1773.66,2006.33 1776.59,2005.61 1778.66,2005.23 1780.77,2005.22 1783.77,2005.61"/>
    </edge>
    <edge id=":11298542970_0" function="internal">
        <lane id=":11298542970_0_0" index="0" disallow="tram rail_urban rail rail_electric rail_fast ship container cable_car subway aircraft wheelchair scooter drone" speed="11.11" length="6.78" shape="1799.43,2004.16 1800.87,2005.54 1802.00,2006.31 1803.24,2006.96 1804.98,2007.98"/>
    </edge>
    <edge id=":11298542970_1" function="internal">
        <lane id=":11298542970_1_0" index="0" disallow="tram rail_urban rail rail_electric rail_fast ship container cable_car subway aircraft wheelchair scooter drone" speed="13.89" length="11.76" shape="1793.83,2004.01 1797.34,2004.58 1799.73,2005.16 1801.95,2006.15 1804.98,2007.98"/>
        <lane id=":11298542970_1_1" index="1" disallow="tram rail_urban rail rail_electric rail_fast ship container cable_car subway aircraft wheelchair scooter drone" speed="13.89" length="11.76" shape="1792.45,2007.02 1795.84,2007.54 1798.16,2008.04 1800.33,2008.94 1803.25,2010.68"/>
    </edge>
    <edge id=":11298542981_0" function="internal">
        <lane id=":11298542981_0_0" index="0" disallow="tram rail_urban rail rail_electric rail_fast ship container cable_car subway aircraft wheelchair scooter drone" speed="5.75" length="6.68" shape="1808.73,2034.53 1807.01,2033.82 1805.47,2033.80 1804.13,2034.46 1802.98,2035.82"/>
    </edge>
    <edge id=":11298542981_1" function="internal">