<?xml version="1.0" encoding="UTF-8"?>

<!-- generated on 2025-07-01 10:22:01.872077 by randomTrips.py v1_22_0+0002-63e50f52594
<configuration>
    <net-file value="map.net.xml"/>
    <route-file value="map.rou.xml"/>
    <vehicle-class value="passenger"/>
    <validate value="True"/>
    <end value="1000.0"/>
    <period value="0.5"/>
</configuration>
-->

<!-- generated on 2025-07-01 10:22:01 by Eclipse SUMO duarouter Version 1.22.0
<duarouterConfiguration xmlns:xsi="http://www.w3.org/2001/XMLSchema-instance" xsi:noNamespaceSchemaLocation="http://sumo.dlr.de/xsd/duarouterConfiguration.xsd">

    <input>
        <net-file value="map.net.xml"/>
        <route-files value="trips.trips.xml"/>
    </input>

    <output>
        <output-file value="map.rou.xml"/>
        <alternatives-output value="NUL"/>
    </output>

    <time>
        <begin value="0.0"/>
        <end value="1000.0"/>
    </time>

    <report>
        <no-warnings value="true"/>
        <ignore-errors value="true"/>
        <no-step-log value="true"/>
    </report>

</duarouterConfiguration>
-->

<routes xmlns:xsi="http://www.w3.org/2001/XMLSchema-instance" xsi:noNamespaceSchemaLocation="http://sumo.dlr.de/xsd/routes_file.xsd">
    <vType id="passenger" vClass="passenger"/>
    <vehicle id="0" type="passenger" depart="0.00">
        <route edges="4444153#4 4444153#5 4444153#6 4447065#7 4447065#8 53746251#3 53746251#4 53746251#5 53746251#6 53746251#7 53746251#8 53746251#9 538082811#9 538082811#10 538082811#11 523389756#0 523389756#1 523389756#2 523389756#3 4447087#0 4447087#1 4447087#2 4447087#3 4447087#4 4447087#5 648289151#0 648289151#1 648289151#2 648289151#3 1290939474#0 1290939474#1 -1290939474#1 -1290939474#0"/>
    </vehicle>
    <vehicle id="1" type="passenger" depart="0.50">
        <route edges="-977481198#6 -977481198#5 -977481198#4 -977481198#3 -977481198#2 -977481198#1 -977481198#0 -27619127#5 -27619127#4 -27619127#3 -27619127#2 -27619127#1 -27619127#0 -977539434#5 -977539434#4 -977539434#3 -977539434#2 -977539434#1 -977539434#0 -519905875#3 -519905875#2 -519905875#1 -519905875#0"/>
    </vehicle>
    <vehicle id="2" type="passenger" depart="1.00">
        <route edges="4450706#2 4453431#0 4453431#1 4453431#2 -1310896019#2 -1310896019#1 -1310896019#0 -4453430#1 318523942#4 318523942#5 318523942#6 -1310896362#0 -24016102#16 -24016102#15 -24016102#14 -24016102#13 -24016102#12 -24016102#11 -24016102#10 -24016102#9 -24016102#8 -24016102#7 -24016102#6 -24016102#5 -24016102#4 -24016102#3 -24016102#2 -24016102#1 -24016102#0 -25468017#4 -25468017#3 -25468017#2 -25468017#1 -25468017#0 -34378204#3 -34378204#2 -34378204#1 -34378204#0 4447075#3 4447075#4 4447075#5 4447075#6 24038228#0 24038228#1 24038228#2 24038228#3 24038228#4 24038228#5 24038228#6 24038228#7 24038228#8 24038228#9 24038226#0 24038226#1 24038226#2 4447065#16"/>
    </vehicle>
    <vehicle id="3" type="passenger" depart="1.50">
        <route edges="553772525 318523942#0 318523942#1 318523942#2 318523942#3 318523942#4 318523942#5 318523942#6 -1310896362#0 -24016102#16 -24016102#15 -24016102#14 -24016102#13 -24016102#12 -24016102#11 -24016102#10 -24016102#9 -24016102#8 -24016102#7 -24016102#6 -24016102#5 -24016102#4 -24016102#3 -24016102#2 -24016102#1 -24016102#0 -25468017#4 -25468017#3 -25468017#2 -25468017#1 -25468017#0 -34378204#3 -34378204#2 -34378204#1 -34378204#0 4447075#3 4447075#4 4447075#5 4447075#6 -231373089#4 -231373089#3 -231373089#2 -231373089#1"/>
    </vehicle>
    <vehicle id="4" type="passenger" depart="2.00">
        <route edges="208763262#2 208763262#3 208763262#4 1073043102 1322347615 -977481198#6 -977481198#5 -977481198#4 -977481198#3 -977481198#2 -977481198#1 -977481198#0 -27619127#5 -27619127#4 -27619127#3 -27619127#2 -27619127#1 -27619127#0 -977539434#5 -977539434#4 -977539434#3 -977539434#2 -977539434#1 -977539434#0 4450705#0 4450705#1 4450705#2 4450705#3 4450705#4 -27281303#2 -27281303#1 -27281303#0 -1310896019#2 -1310896019#1 -1310896019#0 -4453430#1 318523942#4 318523942#5 318523942#6 -1310896362#0"/>
    </vehicle>
    <vehicle id="5" type="passenger" depart="2.50">
        <route edges="-519905875#3 -519905875#2 -519905875#1 -519905875#0 -264313540#6 -264313540#5 -264313540#4 -264313540#3 -264313540#2 -264313540#1 -264313540#0 -164286214#7 -164286214#6 -164286214#5 -164286214#4 -164286214#3 -164286214#2 -164286214#1 -164286214#0 -648289151#3 -648289151#2 -648289151#1 -648289151#0 -4447087#5 -4447087#4 4447075#0 4447075#1 4447075#2 4447075#3 4447075#4 4447075#5 4447075#6 24038228#0 24038228#1 24038228#2 24038228#3"/>
    </vehicle>
    <vehicle id="6" type="passenger" depart="3.00">
        <route edges="-1290939474#2 -1290939474#1 -1290939474#0 -1290939473#1 -1290939473#0 -370683936 -122617737#2 -122617737#1 -122617737#0 580067988#0 580067988#1 580067990 -208763271#1 -208763271#0 -4447069#2 -4447069#1 -4447069#0 4447074#0 4447074#1 -4447074#1 -4447074#0"/>
    </vehicle>
    <vehicle id="7" type="passenger" depart="3.50">
        <route edges="4444184#2 4447065#1 4447065#2 4447063#0 4447063#1 4447063#2 4447063#3 4447063#4 4447063#5 4447063#6 4447063#7 4447063#8 537495962#0 537495962#1 537495962#2 538082811#7 538082811#8 538082811#9 538082811#10 -231373089#8 -231373089#7 -231373089#6 -231373089#5 -231373089#4 -231373089#3 27089069#0 27089069#1"/>
    </vehicle>
    <vehicle id="8" type="passenger" depart="4.00">
        <route edges="-52073595#1 -52073595#0 52073595#0 52073595#1 52073595#2 52073595#3 52073595#4 538082811#10 538082811#11 538082811#12 538082811#13 538082811#14 538082811#15 4444146#0 4444146#1 4444146#2 208763263#0 208763263#1 208763263#2 208763263#3 208763263#4 208763263#5 208763262#0 208763262#1 208763262#2 208763262#3 208763262#4 1073043102 1322347615 -977481198#6 -977481198#5 -977481198#4 -977481198#3 -977481198#2 -977481198#1 -977481198#0 345617051 345617050#0 345617050#1"/>
    </vehicle>
    <vehicle id="9" type="passenger" depart="4.50">
        <route edges="4902489#2 4902489#3 4902488#0 4902488#1 4902488#2 24038185#7 24038185#8 24038185#9 24038185#10 24016102#6 24016102#7 24016102#8 24016102#9 24016102#10 24016102#11 24016102#12 24016102#13 24016102#14 24016102#15 24016102#16 1310896362#0 318523942#7 -1121983403#1"/>
    </vehicle>
    <vehicle id="10" type="passenger" depart="5.00">
        <route edges="4902488#1 4902488#2 24038185#7 24038185#8 24038185#9 24038185#10 -24016102#5 -24016102#4 4453443#0 4453443#1 4453443#2 4453443#3 -1290939474#1 -1290939474#0 -1290939473#1 -1290939473#0 -370683936 -122617737#2 -122617737#1 -122617737#0 580067988#0 580067988#1 580067990 -208763271#1 -208763271#0 -4447069#2 -4447069#1 -4447069#0 4447074#0 4447074#1"/>
    </vehicle>
    <vehicle id="11" type="passenger" depart="5.50">
        <route edges="1310896362#1 138279097#0 138279097#1 138279097#2 138279097#3 1033801614#0 1033801614#1 1033801614#2 68951253#0 68951253#1 1310896363#0 1310896363#1 1310896363#2 1310896363#3 4450703#0 1320186868#3 1320186868#4 1320186868#5 1320186868#6 519905875#0 519905875#1 519905875#2 519905875#3 977539434#0 977539434#1 977539434#2 977539434#3 977539434#4 977539434#5 27619127#0 27619127#1 27619127#2 27619127#3 27619127#4 27619127#5 -27619127#5"/>
    </vehicle>
    <vehicle id="12" type="passenger" depart="6.00">
        <route edges="8412368#0 8412368#1 27447898#0 27447898#1 -378989483#1 -378989483#0 -1201196829#1 -1201196829#0 -24016058#4 -24016058#3 -24016058#2 -24016058#1 -24016058#0 1290939469#0 1290939469#1 1290939470"/>
    </vehicle>
    <vehicle id="13" type="passenger" depart="6.50">
        <route edges="-24016058#1 -24016058#0 24016058#0 24016058#1 24016058#2 24016058#3 24016058#4 -24016058#4"/>
    </vehicle>
    <vehicle id="14" type="passenger" depart="7.00">
        <route edges="52073597#4 537495962#0 537495962#1 537495962#2 538082811#7 538082811#8 538082811#9 538082811#10 -231373089#8 -231373089#7 -231373089#6 -231373089#5 -231373089#4 -231373089#3 -231373089#2 -231373089#1 -231373089#0 -1318054076#12 -1318054076#11 -1318054076#10 -364792828#8 -364792828#7 -364792828#6 -364792828#5 -364792828#4 -364792828#3 364792828#3"/>
    </vehicle>
    <vehicle id="15" type="passenger" depart="7.50">
        <route edges="4902489#0 4902489#1 5103454#0 5103454#1 5103454#2 1318054309#6 1318054309#7 24016102#13 24016102#14 24016102#15 24016102#16 1310896362#0 1310896362#1 138279097#0 138279097#1 138279097#2 138279097#3 1033801614#0 1033801614#1 1033801614#2 68951253#0 68951253#1 1310896363#0 1310896363#1 1310896363#2 1310896363#3 4450703#0 4450703#1 4450703#2 4450703#3 4450703#4 4450703#5 4450704#0 4450704#1 4450704#2 4450704#3"/>
    </vehicle>
    <vehicle id="16" type="passenger" depart="8.00">
        <route edges="27088869#0 27088869#1 53355676#0 53355676#1 53355676#2 53355676#3 53355676#4 53355676#5 53355676#6 53355676#7 53355676#8 53355676#9 52073595#0 52073595#1 52073595#2 52073595#3 52073595#4 538082811#10 538082811#11 538082811#12 538082811#13 538082811#14 538082811#15 538082811#0 538082811#1 538082811#2 34855465#0 34855465#1 34855465#2 34855465#3 27600643#0 27600643#1 8413390#0 8413390#1 8413388#0 8413388#1"/>
    </vehicle>
    <vehicle id="17" type="passenger" depart="8.50">
        <route edges="1353412784#2 1228936483 673557104#0 4447072#0 4447072#1 4447072#2 -4447074#1 -4447074#0 4447069#0 4447069#1 4447069#2 208763262#0 208763262#1 208763262#2 208763262#3 208763262#4 1073043102 1322347615 -977481198#6 -977481198#5 -977481198#4 -977481198#3 -977481198#2 -977481198#1 -977481198#0 -190909087#4 -190909087#3 -190909087#2 -190909087#1 -190909087#0 -1290939470 -1290939469#1 -1290939469#0 24016058#0 24016058#1 24016058#2 24016058#3 24016058#4 27447880#0 27447880#1"/>
    </vehicle>
    <vehicle id="18" type="passenger" depart="9.00">
        <route edges="5103458#1 5103458#2 5103458#3 164286214#5 164286214#6 164286214#7 24038185#16 24038185#17 24038185#18 24038185#19 24038185#20 24038185#21 24038185#22 24038185#23 378989483#0 378989483#1 378989483#2 378989483#3"/>
    </vehicle>
    <vehicle id="19" type="passenger" depart="9.50">
        <route edges="525305604#2 4472343#0 4472343#1 4472343#2 4472343#3 4472343#4 543204402#0 543204402#1 543204402#2 974421670 122617707#0 122617707#1 122617707#2 122617707#3 1219536457 1228936483 673557104#0 4447072#0 4447072#1 4447072#2 -4447074#1 -4447074#0 4447069#0 4447069#1 4447069#2 208763262#0 208763262#1 208763262#2 208763262#3 208763262#4 1073043102 1322347615 -977481198#6 -977481198#5 -977481198#4 -977481198#3 -977481198#2 -977481198#1 -977481198#0 -27619127#5 -27619127#4 -27619127#3 -27619127#2 -27619127#1 -27619127#0 -977539434#5 -977539434#4 -977539434#3 -977539434#2 -977539434#1 -977539434#0 -519905875#3 -519905875#2 -519905875#1 -519905875#0 -1320186868#6 -1320186868#5 -1320186868#4 -1320186868#3 -4450703#0 -1310896363#3 -1310896363#2 -1310896363#1 -1310896363#0 -68951253#1 318523942#1"/>
    </vehicle>
    <vehicle id="20" type="passenger" depart="10.00">
        <route edges="4447079#2 1330305912#0 1330305912#1 -4450703#5 -4450703#4 -4450703#3 -4450703#2 -4450703#1 -1320186868#2 -1320186868#1 -1320186868#0 -1318221181#3 -1318221181#2 -1318221181#1 -1318221181#0"/>
    </vehicle>
    <vehicle id="21" type="passenger" depart="10.50">
        <route edges="-52073596#5 -52073596#4 -52073596#3 4472352#0 4472352#1 4472352#2 4472352#3 34849332#0 34849332#1 34849332#2 4472357#0 4472357#1 4472357#2 4472358#3 4472358#4 4472358#5 24038185#0 24038185#1 24038185#2 24038185#3 24038185#4 24038185#5 24038185#6 24038185#7 24038185#8 24038185#9 24038185#10 24016102#6 24016102#7 24016102#8 24016102#9 24016102#10 24016102#11 24016102#12 24016102#13 24016102#14 24016102#15 24016102#16 1310896362#0 1310896362#1 138279097#0 138279097#1 138279097#2 138279097#3 1033801614#0 1033801614#1 1033801614#2"/>
    </vehicle>
    <vehicle id="22" type="passenger" depart="11.00">
        <route edges="-205674204#3 -205674204#2 -205674204#1 -205674204#0 -1204001591#1 -1204001591#0 1290939469#0 1290939469#1 1290939470 190909087#0 190909087#1 190909087#2 190909087#3 190909087#4 345617051 345617050#0 345617050#1 -122617735#1 -122617735#0 -648289150#2 -648289150#1 -648289150#0 -4447087#5 -4447087#4 4447075#0 4447075#1 4447075#2 4447075#3 4447075#4 4447075#5 4447075#6 24038228#0 24038228#1 24038228#2 24038228#3 24038228#4 24038228#5 24038228#6 53355676#7 53355676#8 53355676#9 -52073596#5 -52073596#4 -52073596#3"/>
    </vehicle>
    <vehicle id="23" type="passenger" depart="11.50">
        <route edges="-24016102#15 -24016102#14 -24016102#13 -24016102#12 -24016102#11 -24016102#10 -24016102#9 -24016102#8 -24016102#7 -24016102#6 -24016102#5 -24016102#4 4453443#0 4453443#1 4453443#2 4453443#3 -1290939474#1 -1290939474#0 -1290939473#1 -1290939473#0 -345617053#2 -345617053#1 -345617053#0 -1290939471 -1290939472 208763272 648289153#0 648289153#1 977481198#0 977481198#1 977481198#2 977481198#3 -977481198#3"/>
    </vehicle>
    <vehicle id="24" type="passenger" depart="12.00">
        <route edges="4444153#0 4444153#1 4444153#2 4444153#3 -27600216#1 -27600216#0 53746251#6 53746251#7 53746251#8 53746251#9 538082811#9 538082811#10 538082811#11 523389756#0 523389756#1 523389756#2 95500953#0 95500953#1 95500953#2 -4039139#1 -4039139#0 34378204#0 34378204#1 34378204#2 34378204#3 25468017#0 25468017#1 25468017#2 25468017#3 25468017#4 24016102#0 24016102#1 24016102#2 24016102#3 24016102#4 24016102#5 24016102#6 24016102#7 24016102#8 4902489#0 4902489#1 5103454#0 5103454#1 5103454#2 1318054309#6"/>
    </vehicle>
    <vehicle id="25" type="passenger" depart="12.50">
        <route edges="1320186868#5 1320186868#6 538082812#0 538082812#1 538082812#2 538082812#3 4450703#5 -4450703#5"/>
    </vehicle>
    <vehicle id="26" type="passenger" depart="13.00">
        <route edges="-68951253#1 318523942#1 318523942#2 318523942#3 318523942#4 318523942#5 318523942#6 -1310896362#0 -24016102#16 -24016102#15 -24016102#14 -24016102#13 -24016102#12 -24016102#11 -24016102#10 -24016102#9 -24016102#8 -24016102#7 -24016102#6 -24016102#5 -24016102#4 -24016102#3 -24016102#2 -24016102#1 -24016102#0 -25468017#4 -25468017#3 -25468017#2 -25468017#1 -25468017#0 -34378204#3 -34378204#2 -34378204#1 -34378204#0 4039139#0 4039139#1 95500952#0 95500952#1 95500952#2 -4447087#0 523389755#0 523389755#1 523389755#2 538082811#15 538082811#0 538082811#1 -122617706#2 -122617706#1 -122617706#0 122617705#0 122617705#1 673557104#0"/>
    </vehicle>
    <vehicle id="27" type="passenger" depart="13.50">
        <route edges="4444184#0 4444184#1 4444184#2 4447065#1 4447065#2 4447063#0 4447063#1 4447063#2 4447063#3 4447063#4 4447063#5 4447063#6 4447063#7 4447063#8 537495962#0 537495962#1 537495962#2 538082811#7 538082811#8 538082811#9 538082811#10 538082811#11 538082811#12 538082811#13 538082811#14 538082811#15 4444146#0 4444146#1 4444146#2 4447068#0 4447068#1 4447068#2 4447068#3 648289149#0 648289149#1 122617737#0 122617737#1 122617737#2 370683936"/>
    </vehicle>
    <vehicle id="28" type="passenger" depart="14.00">
        <route edges="-378989483#2 -378989483#1 -378989483#0 -1201196829#1 -1201196829#0 -24016058#4 -24016058#3 -24016058#2 -24016058#1 -24016058#0 1290939469#0 1290939469#1 1290939470 190909087#0 190909087#1 4444186#3 4444186#4 4444186#5 4453433#0 4453433#1 4453433#2 -27619127#2 -27619127#1 -27619127#0 -977539434#5 -977539434#4 -977539434#3 -977539434#2 -977539434#1 -977539434#0 -519905875#3 -519905875#2 -519905875#1 -519905875#0 538082812#0 538082812#1 538082812#2 538082812#3 4450703#5 4450704#0 4450704#1 4450704#2"/>
    </vehicle>
    <vehicle id="29" type="passenger" depart="14.50">
        <route edges="-364792828#6 24038185#0 24038185#1 24038185#2 1318054076#6 1318054076#7 1318054076#8 1318054076#9 52108083#0 52108083#1 52108083#2 161357556#0 161357556#1 161357556#2 161357556#3 161357556#4 161357556#5 25467965#0 25467965#1 25467965#2 25467965#3 648289150#0 648289150#1 648289150#2 648289152#0 648289152#1 648289152#2 648289152#3 648289152#4 648289152#5 1351892769"/>
    </vehicle>
    <vehicle id="30" type="passenger" depart="15.00">
        <route edges="977481198#0 977481198#1 977481198#2 -977481198#2 -977481198#1 -977481198#0 345617051 345617050#0 345617050#1 -122617735#1 -122617735#0 -648289150#2 -648289150#1 -648289150#0 -4447087#5 -4447087#4 -4447087#3 -4447087#2 -4447087#1 -4447087#0 523389755#0 523389755#1 523389755#2 538082811#15 538082811#0 538082811#1 538082811#2 538082811#3 538082811#4 538082811#5 538082811#6 538082811#7 4444153#0 4444153#1 4444153#2 4444153#3"/>
    </vehicle>
    <vehicle id="31" type="passenger" depart="15.50">
        <route edges="27600218#2 4444153#4 4444153#5 4444153#6 4447065#7 4447065#8"/>
    </vehicle>
    <vehicle id="32" type="passenger" depart="16.00">
        <route edges="52073596#4 52073596#5 -52073596#5 -52073596#4 -52073596#3 4472352#0 4472352#1 4472352#2 4472352#3 4472352#4 4472352#5 4472352#6 4472352#7"/>
    </vehicle>
    <vehicle id="33" type="passenger" depart="16.50">
        <route edges="-52073597#0 52073597#0 52073597#1 52073597#2 52073597#3 52073597#4 537495962#0 537495962#1 537495962#2 538082811#7 538082811#8 538082811#9 538082811#10 538082811#11 523389756#0 523389756#1 523389756#2 523389756#3 4447087#0 4447087#1 4447087#2 4447087#3 4447087#4 4447087#5 648289151#0 648289151#1 648289151#2 648289151#3 164286214#0 164286214#1 164286214#2 164286214#3 164286214#4 164286214#5 164286214#6 164286214#7 264313540#0 264313540#1 264313540#2 264313540#3 264313540#4 264313540#5 264313540#6 -1320186868#6 -1320186868#5 -1320186868#4 -1320186868#3 -4450703#0 -1310896363#3 -1310896363#2 -1310896363#1"/>
    </vehicle>
    <vehicle id="34" type="passenger" depart="17.00">
        <route edges="122617720#3 122617720#4 122617720#5 122617720#6 122617720#7 122617720#8 122617720#9 122617720#10 122617720#11 538082811#1 538082811#2 34855465#0 34855465#1 34855465#2 34855465#3 -614904273#2 -614904273#1 -614904273#0 -614904272 -648489614#1 -648489614#0"/>
    </vehicle>
    <vehicle id="37" type="passenger" depart="18.50">
        <route edges="4444186#6 4444186#7 24038185#21 24038185#22 24038185#23 -1201196829#1 -1201196829#0 -24016058#4 -24016058#3 -24016058#2 -24016058#1 -24016058#0 1290939469#0 1290939469#1 1290939470 190909087#0 190909087#1 190909087#2 190909087#3 190909087#4 345617051 345617052#0 345617052#1 1290939472 1290939471 345617053#0 345617053#1 345617053#2 1290939473#0 1290939473#1 1290939474#0 1290939474#1 1290939474#2 164286216#0 164286216#1 164286216#2 164286216#3 502174128#0 502174128#1 502174128#2 502174128#3 502174128#4 502174128#5 161357556#1 161357556#2 161357556#3 161357556#4 161357556#5"/>
    </vehicle>
    <vehicle id="38" type="passenger" depart="19.00">
        <route edges="638578600#2 638578600#3 638578600#4 638578600#5 638578600#6 4444148#0 4444148#1 4444148#2 122617706#0 122617706#1 122617706#2 538082811#2 538082811#3 538082811#4 538082811#5 538082811#6 538082811#7 538082811#8 538082811#9 -52073595#4 -52073595#3 -52073595#2 -52073595#1 -52073595#0 -52073596#5 -52073596#4 -52073596#3 -52073596#2 -52073596#1 -52073596#0 -4082034#10 -4082034#9 -4082034#8 4472359#0 4472359#1 4472359#2 4472359#3 4472359#4 24017627#0"/>
    </vehicle>
    <vehicle id="39" type="passenger" depart="19.50">
        <route edges="-648586621#2 -648586621#1 -648586621#0 648586621#0 648586621#1 648586621#2 974421670 122617707#0 122617707#1 122617707#2 122617707#3 1219536457 1228936483 673557104#0 4447072#0 4447072#1 4447072#2 -4447074#1 -4447074#0 4447069#0 4447069#1 4447069#2 208763262#0 208763262#1 208763262#2 208763262#3 208763262#4 1073043102 1322347615 -977481198#6 -977481198#5 -977481198#4 -977481198#3 -977481198#2 -977481198#1 -977481198#0 -27619127#5 -27619127#4 -27619127#3 -27619127#2 -27619127#1 -27619127#0 -977539434#5 -977539434#4 -977539434#3 -977539434#2 -977539434#1 -977539434#0 -519905875#3 -519905875#2 -519905875#1 -519905875#0 -1320186868#6 -1320186868#5 -1320186868#4 -1320186868#3 4450703#1 4450703#2 4450703#3 4450703#4 -538082812#3 -538082812#2 -538082812#1"/>
    </vehicle>
    <vehicle id="40" type="passenger" depart="20.00">
        <route edges="27600656#0 27600656#1 -27600656#1 -27600656#0 1231728267 52073597#0 52073597#1 52073597#2 52073597#3 52073597#4 537495962#0 537495962#1 537495962#2 538082811#7 538082811#8 538082811#9 538082811#10 538082811#11 538082811#12 538082811#13 538082811#14 538082811#15 4444146#0 4444146#1 4444146#2 208763263#0 208763263#1 208763263#2 208763263#3 208763263#4 208763263#5 208763262#0 208763262#1 208763262#2 208763262#3 208763262#4 1073043103 -648289152#5 -648289152#4 -648289152#3 -648289152#2 -648289152#1 -648289152#0"/>
    </vehicle>
    <vehicle id="41" type="passenger" depart="20.50">
        <route edges="34378204#3 25467965#0 25467965#1 25467965#2 25467965#3 648289150#0 648289150#1 648289150#2 580067988#0 580067988#1 580067988#2"/>
    </vehicle>
    <vehicle id="42" type="passenger" depart="21.00">
        <route edges="164286214#6 164286214#7 -164286214#7 -164286214#6 -164286214#5 -164286214#4 -164286214#3 -164286214#2 -164286214#1 -164286214#0 1290939474#0 1290939474#1 1290939474#2 164286216#0 164286216#1 164286216#2 164286216#3 502174128#0 502174128#1 502174128#2 502174128#3 502174128#4 502174128#5 -502174128#5 -502174128#4 -502174128#3 -502174128#2 -502174128#1"/>
    </vehicle>
    <vehicle id="43" type="passenger" depart="21.50">
        <route edges="977539434#3 977539434#4 977539434#5 27619127#0 27619127#1 27619127#2 27619127#3 4453434#0 4453434#1 4453434#2 -164286214#3 -164286214#2 -164286214#1 -164286214#0 -648289151#3 -648289151#2 -648289151#1 -648289151#0 -4447087#5 -4447087#4 4447075#0 4447075#1 4447075#2 4447075#3 4447075#4 4447075#5 4447075#6 24038228#0 24038228#1 24038228#2 24038228#3 24038228#4 24038228#5 24038228#6 24038228#7 24038228#8"/>
    </vehicle>
    <vehicle id="44" type="passenger" depart="22.00">
        <route edges="-231373089#8 -231373089#7 -231373089#6 -231373089#5 -231373089#4 -231373089#3 -231373089#2 -231373089#1 -231373089#0 -1318054076#12 -1318054076#11 -1318054076#10 -1318054076#9 -1318054076#8 -1318054076#7 -1318054076#6 24038185#3 24038185#4 24038185#5 24038185#6 24038185#7 24038185#8 24038185#9 24038185#10 24038185#11 24038185#12 24038185#13 24038185#14 24038185#15 264313540#0 264313540#1 264313540#2 264313540#3 264313540#4 264313540#5 264313540#6 -1320186868#6 -1320186868#5 -1320186868#4 -1320186868#3 -1320186868#2 -1320186868#1 -1320186868#0 -1318221181#3 -1318221181#2"/>
    </vehicle>
    <vehicle id="45" type="passenger" depart="22.50">
        <route edges="-247113362#1 -247113362#0 247113362#0 247113362#1 247113362#2 247113362#3 247113362#4 247113362#5 247113362#6 247113362#7 247113362#8 1290939469#0 1290939469#1 1290939470 190909087#0 190909087#1 190909087#2 190909087#3 190909087#4 345617051 345617050#0 345617050#1 -122617735#1 -122617735#0 -648289150#2 -648289150#1 -648289150#0 -4447087#5 -4447087#4 4447075#0 4447075#1 4447075#2 4447075#3 4447075#4 4447075#5 4447075#6 24038228#0 24038228#1 24038228#2 24038228#3 24038228#4 24038228#5 24038228#6 24038228#7 24038228#8 24038228#9 -52073596#2 -52073596#1 -52073596#0 -4082034#10 -4082034#9 -4082034#8 -4082034#7 -4082034#6 -4082034#5 -4082034#4 4082034#4"/>
    </vehicle>
    <vehicle id="46" type="passenger" depart="23.00">
        <route edges="4472358#4 4472358#5 364792828#6 364792828#7 364792828#8 52108083#0 52108083#1 52108083#2 161357556#0 161357556#1 161357556#2 161357556#3 161357556#4 161357556#5 25467965#0 25467965#1 25467965#2 25467965#3 648289150#0 648289150#1 648289150#2 580067988#0 580067988#1 580067990 -208763271#1 -208763271#0 208763262#0 208763262#1"/>
    </vehicle>
    <vehicle id="47" type="passenger" depart="23.50">
        <route edges="-164286214#2 -164286214#1 -164286214#0 -648289151#3 -648289151#2 -648289151#1 -648289151#0 -4447087#5 -4447087#4 -4447087#3 -4447087#2 -4447087#1 -4447087#0 523389755#0 523389755#1 523389755#2 538082811#15 538082811#0 538082811#1 538082811#2 34855465#0 34855465#1 34855465#2 34855465#3 25474003#0 25474003#1 25474003#2 1219536456#0 1219536456#1 1353412784#0 1353412784#1 1353412784#2"/>
    </vehicle>
    <vehicle id="48" type="passenger" depart="24.00">
        <route edges="977539434#1 977539434#2 977539434#3 977539434#4 977539434#5 27619127#0 27619127#1 27619127#2 27619127#3 4453434#0 4453434#1 4453434#2 -164286214#3 -164286214#2 -164286214#1 -164286214#0 1290939474#0 1290939474#1 1290939474#2 164286216#0 164286216#1 164286216#2 164286216#3 -25468017#4 -25468017#3 -25468017#2 -25468017#1 -25468017#0 25468017#0 25468017#1 25468017#2 25468017#3 25468017#4"/>
    </vehicle>
    <vehicle id="49" type="passenger" depart="24.50">
        <route edges="8413388#0 8413388#1 8413388#2 4472343#3 4472343#4 543204402#0 543204402#1 543204402#2 974421670 122617707#0 122617707#1 122617707#2 122617707#3 4444148#0 4444148#1 4444148#2 122617706#0 122617706#1 122617706#2 538082811#2 538082811#3 538082811#4 538082811#5 538082811#6 538082811#7 538082811#8 538082811#9 538082811#10 538082811#11 523389756#0 523389756#1 523389756#2 523389756#3"/>
    </vehicle>
    <vehicle id="50" type="passenger" depart="25.00">
        <route edges="-122617706#1 -122617706#0 122617706#0 122617706#1 122617706#2 538082811#2 34855465#0 34855465#1 34855465#2 34855465#3 -614904273#2 -614904273#1 -614904273#0 -614904272 -648489614#1 -648489614#0 -648586621#2 -648586621#1 -648586621#0 4450699#0 4450699#1 4450699#2 4450699#3 4450699#4 4450699#5 4450699#6 4450699#7 4450699#8"/>
    </vehicle>
    <vehicle id="51" type="passenger" depart="25.50">
        <route edges="4447065#6 4447065#7 4447065#8 53746251#3 53746251#4 53746251#5 53746251#6 53746251#7 53746251#8 53746251#9 538082811#9 538082811#10 538082811#11 523389756#0 523389756#1 523389756#2 523389756#3 4447087#0 4447087#1 4447087#2 4447087#3 4447087#4 4447087#5 648289151#0 648289151#1 648289151#2 648289151#3 164286214#0 164286214#1 164286214#2 164286214#3 164286214#4 164286214#5 164286214#6 164286214#7 264313540#0 264313540#1 264313540#2 264313540#3 264313540#4 264313540#5"/>
    </vehicle>
    <vehicle id="52" type="passenger" depart="26.00">
        <route edges="-68951253#0 553772525 318523942#0 318523942#1 318523942#2 318523942#3 318523942#4 318523942#5 318523942#6 -1310896362#0 -24016102#16 -24016102#15 -24016102#14 -24016102#13 -24016102#12 -24016102#11 -24016102#10 -24016102#9 -24016102#8 -24016102#7 -24016102#6 -24016102#5 -24016102#4 -24016102#3 -24016102#2 -24016102#1 -24016102#0 -25468017#4 -25468017#3 -25468017#2 -25468017#1 -25468017#0 -34378204#3 -34378204#2 -34378204#1 -34378204#0 4039139#0 4039139#1 95500952#0 95500952#1 95500952#2 -4447087#0 523389755#0 523389755#1 523389755#2 538082811#15 538082811#0 538082811#1 538082811#2 538082811#3 538082811#4 538082811#5 538082811#6 538082811#7 4444153#0 4444153#1 4444153#2 4444153#3 4444153#4"/>
    </vehicle>
    <vehicle id="53" type="passenger" depart="26.50">
        <route edges="-247113362#3 -247113362#2 247113362#2 247113362#3 247113362#4 247113362#5 247113362#6 247113362#7 247113362#8 1290939469#0 1290939469#1 1290939470 190909087#0 190909087#1 190909087#2 190909087#3 190909087#4 345617051 345617052#0 345617052#1 1290939472 1290939471 345617053#0 345617053#1 345617053#2 1290939473#0 1290939473#1 1290939474#0 1290939474#1 1290939474#2 164286216#0 164286216#1 164286216#2 164286216#3 502174128#0 502174128#1 502174128#2 502174128#3 502174128#4 502174128#5 -161357556#0 25112662#0 25112662#1 231373089#0 231373089#1 231373089#2"/>
    </vehicle>
    <vehicle id="54" type="passenger" depart="27.00">
        <route edges="24016102#6 24016102#7 24016102#8 5103455#0 5103455#1 5103455#2 264313540#2 264313540#3 -4450705#3 -4450705#2 -4450705#1 -4450705#0 977539434#0 977539434#1 977539434#2 977539434#3 977539434#4 977539434#5 24038185#19 24038185#20 24038185#21 24038185#22 24038185#23 -1201196829#1 -1201196829#0 -24016058#4 -24016058#3 -24016058#2 27447820#0 27447820#1 27447820#2 205674204#1 205674204#2 205674204#3 205674204#4 205674204#5 971402423#0 971402423#1 971402423#2 8412359#0 8412359#1"/>
    </vehicle>
    <vehicle id="55" type="passenger" depart="27.50">
        <route edges="53746251#6 53746251#7 53746251#8 53746251#9 538082811#9 538082811#10 538082811#11 538082811#12 538082811#13 538082811#14 538082811#15 4444146#0 4444146#1 4444146#2 208763263#0 208763263#1 208763263#2 208763263#3 208763263#4 208763263#5 208763262#0 208763262#1 208763262#2 208763262#3 208763262#4 1073043103 -648289152#5 -648289152#4 -648289152#3 -648289152#2 -648289152#1"/>
    </vehicle>
    <vehicle id="56" type="passenger" depart="28.00">
        <route edges="24038228#1 24038228#2 24038228#3 24038228#4 24038228#5 24038228#6 53355676#7 53355676#8 53355676#9 52073595#0 52073595#1 52073595#2 52073595#3 52073595#4 538082811#10 538082811#11 523389756#0 523389756#1 523389756#2 95500953#0 95500953#1 95500953#2 -4039139#1 -4039139#0"/>
    </vehicle>
    <vehicle id="57" type="passenger" depart="28.50">
        <route edges="638578600#0 638578600#1 638578600#2 638578600#3 638578600#4 638578600#5 638578600#6 4444148#0 4444148#1 4444148#2 122617706#0 122617706#1 122617706#2 538082811#2 538082811#3 538082811#4 538082811#5 538082811#6 538082811#7 538082811#8 538082811#9 -52073595#4 -52073595#3 -52073595#2 8412355#0 8412355#1 8412355#2 24038228#5 24038228#6 53355676#7 53355676#8"/>
    </vehicle>
    <vehicle id="58" type="passenger" depart="29.00">
        <route edges="1219536456#1 1353412784#0 4444148#2 122617706#0 122617706#1 122617706#2 538082811#2 538082811#3 538082811#4 538082811#5 538082811#6 538082811#7 4444153#0 4444153#1"/>
    </vehicle>
    <vehicle id="59" type="passenger" depart="29.50">