<?xml version="1.0" encoding="UTF-8"?>

<!-- generated on 2025-07-08 10:33:18.540621 by randomTrips.py v1_22_0+0002-63e50f52594
<configuration>
    <net-file value="map.net.xml"/>
    <route-file value="map.rou.xml"/>
    <length value="True"/>
    <fringe-factor value="5.0"/>
    <validate value="True"/>
    <end value="1000.0"/>
    <period value="2.0"/>
</configuration>
-->

<!-- generated on 2025-07-08 10:33:18 by Eclipse SUMO duarouter Version 1.22.0
<duarouterConfiguration xmlns:xsi="http://www.w3.org/2001/XMLSchema-instance" xsi:noNamespaceSchemaLocation="http://sumo.dlr.de/xsd/duarouterConfiguration.xsd">

    <input>
        <net-file value="map.net.xml"/>
        <route-files value="trips.trips.xml"/>
    </input>

    <output>
        <output-file value="map.rou.xml"/>
        <alternatives-output value="NUL"/>
    </output>

    <time>
        <begin value="0"/>
        <end value="1000.0"/>
    </time>

    <report>
        <no-warnings value="true"/>
        <ignore-errors value="true"/>
        <no-step-log value="true"/>
    </report>

</duarouterConfiguration>
-->

<routes xmlns:xsi="http://www.w3.org/2001/XMLSchema-instance" xsi:noNamespaceSchemaLocation="http://sumo.dlr.de/xsd/routes_file.xsd">
    <vehicle id="0" depart="0.00">
        <route edges="4444167#0 4444167#1 122617720#2 122617720#3 4447069#0 4447069#1 4447069#2 208763271#0 208763271#1 580067989 580067988#3 648289149#0 580067987 -648289150#1 -648289150#0 -25467965#3 -25467965#2 -25467965#1 -25467965#0 -161357556#5 -161357556#4 -161357556#3 -161357556#2 -161357556#1 -161357556#0 -52108083#2 -52108083#1 -52108083#0 -1318054076#9 -1318054076#8 -1318054076#7 -1318054076#6 -1318054076#5 -1318054076#4 -1318054076#3 -1318054076#2 -1318054076#1 -1318054076#0"/>
    </vehicle>
    <vehicle id="1" depart="2.00">
        <route edges="1318054076#0 1318054076#1 1318054076#2 1318054076#3 1318054076#4 1318054076#5 1318054076#6 1318054076#7 1318054076#8 1318054076#9 52108083#0 52108083#1 52108083#2 161357556#0 161357556#1 161357556#2 161357556#3 161357556#4 161357556#5 25467965#0 25467965#1 25467965#2 25467965#3 648289150#0 648289150#1 648289150#2 580067988#0 580067988#1 580067990 -208763271#1 -208763271#0 -4447069#2 -4447069#1 -4447069#0 122617720#4 122617720#5 122617720#6 122617720#7 -27601196"/>
    </vehicle>
    <vehicle id="2" depart="4.00">
        <route edges="4472351#0 4472351#1 27088869#0 27088869#1 53355676#0 53355676#1 53355676#2 53355676#3 53355676#4 53355676#5 53355676#6 24038228#7 24038228#8 24038228#9 -52073596#2 -52073596#1 -52073596#0 -4082034#10 -4082034#9 -4082034#8 -4082034#7 -4082034#6 -4082034#5 4082034#5 4082034#6"/>
    </vehicle>
    <vehicle id="3" depart="6.00">
        <route edges="648586621#0 648586621#1 648586621#2 974421670 122617707#0 122617707#1 122617707#2 122617707#3 1219536457 1228936483 673557104#0 4447072#0 4447072#1 4447072#2 -4447074#1 -4447074#0 4447069#0 4447069#1 4447069#2 208763262#0 208763262#1 208763262#2 208763262#3 208763262#4 1073043102 1322347615 -977481198#6 -977481198#5 -977481198#4 -977481198#3 -977481198#2 -977481198#1 -977481198#0 -27619127#5 -27619127#4 -27619127#3 -27619127#2 -27619127#1 -27619127#0 -977539434#5 -977539434#4 -977539434#3 -977539434#2 -977539434#1 -977539434#0 4450705#0 4450705#1 4450705#2 4450705#3 4450705#4 -27281303#2 -27281303#1 -27281303#0 -1310896019#2 -1310896019#1 -1310896019#0 -4453430#1 318523942#4 318523942#5 318523942#6 -1310896362#0 -24016102#16 -24016102#15 -24016102#14"/>
    </vehicle>
    <vehicle id="4" depart="8.00">
        <route edges="27600210#0 27600210#1 4447065#11 4447065#12 4447065#13 4447065#14 4447065#15 4447065#16 4447065#17 4447065#18 4447065#19 59846904#0 59846904#1 59846904#2 59846904#3 4472356#5 4472356#6 4472356#7 34849332#0 34849332#1 34849332#2 4472357#0 4472357#1 4472357#2 4472357#3 4472357#4 4472357#5 -1318054076#12 -1318054076#11 -1318054076#10 -1318054076#9 -1318054076#8 -1318054076#7 -1318054076#6 -1318054076#5 -1318054076#4"/>
    </vehicle>
    <vehicle id="5" depart="10.00">
        <route edges="1059912719 678797229 1073043098 1073043103 -648289152#5 -648289152#4 -648289152#3 -648289152#2 -648289152#1 -648289152#0 -648289150#2 -648289150#1 -648289150#0 -4447087#5 -4447087#4 4447075#0 4447075#1 4447075#2 4447075#3 4447075#4 4447075#5 4447075#6 24038228#0 24038228#1 24038228#2 24038228#3 24038228#4 24038228#5 24038228#6 24038228#7 24038228#8 24038228#9 -52073596#2 -52073596#1 -52073596#0 25112694#0 25112694#1 25112694#2"/>
    </vehicle>
    <vehicle id="6" depart="12.00">
        <route edges="-205674204#5 -205674204#4 -205674204#3 -205674204#2 -205674204#1 -205674204#0 -1204001591#1 -1204001591#0 1290939469#0 1290939469#1 1290939470 190909087#0 190909087#1 190909087#2 190909087#3 190909087#4 345617051 345617050#0 345617050#1 -122617735#1 -122617735#0 -648289150#2 -648289150#1 -648289150#0 -4447087#5 -4447087#4 -4447087#3 -4447087#2 -4447087#1 -4447087#0 523389755#0 523389755#1 523389755#2 538082811#15 538082811#0 538082811#1 538082811#2 538082811#3 537495969#0 537495969#1 537495969#2 -52073597#4 -52073597#3 -52073597#2 -52073597#1 -52073597#0 -1231728267 8412462#0 8412462#1 -27600674"/>
    </vehicle>
    <vehicle id="7" depart="14.00">
        <route edges="4444184#0 4444184#1 4444184#2 4447065#1 4447065#2 4447063#0 4447063#1 4447063#2 4447063#3 4447063#4 4447063#5 4447063#6 4447063#7 4447063#8 537495962#0 537495962#1 537495962#2 538082811#7 538082811#8 538082811#9 538082811#10 -231373089#8 -231373089#7 -231373089#6 -231373089#5 -231373089#4 -231373089#3 27089069#0 27089069#1"/>
    </vehicle>
    <vehicle id="8" depart="16.00">
        <route edges="1059912719 122617720#0 122617720#1 122617720#2 122617720#3 122617720#4 122617720#5 122617720#6 122617720#7 122617720#8 122617720#9 122617720#10 122617720#11 538082811#1 538082811#2 538082811#3 537495969#0 537495969#1 537495969#2 -52073597#4 -52073597#3 -52073597#2 -52073597#1 -52073597#0 -1231728267 27600656#0 27600656#1"/>
    </vehicle>
    <vehicle id="9" depart="18.00">
        <route edges="4758579 91095509 1231728267 52073597#0 52073597#1 52073597#2 52073597#3 52073597#4 537495962#0 537495962#1 537495962#2 538082811#7 538082811#8 538082811#9 538082811#10 -231373089#8 -231373089#7 -231373089#6 -231373089#5 -231373089#4 -231373089#3 -231373089#2 -231373089#1 -231373089#0 -1318054076#12 -1318054076#11 -1318054076#10 -1318054076#9 -1318054076#8 -1318054076#7 -1318054076#6 -1318054076#5 -1318054076#4 -1318054076#3 -1318054076#2 -1318054076#1 -1318054076#0"/>
    </vehicle>
    <vehicle id="10" depart="20.00">
        <route edges="4758579 91095509 8412462#0 8412462#1 8412462#2 8412462#3 27600218#0 27600218#1 27600218#2 4444153#4 4444153#5 4444153#6 4444153#7 4444153#8 4444153#9"/>
    </vehicle>
    <vehicle id="11" depart="22.00">
        <route edges="138277195#0 138277195#1 37073509#0 37073509#1 1121983403#0 1121983403#1 553772527 -1310896362#1 -1310896362#0 -24016102#16 -24016102#15 -24016102#14 -24016102#13 -24016102#12 -24016102#11 -24016102#10 -24016102#9 -24016102#8 -24016102#7 -24016102#6 -24016102#5 -24016102#4 -24016102#3 -24016102#2 -24016102#1 -24016102#0 -25468017#4 -25468017#3 -25468017#2 -25468017#1 -25468017#0 -34378204#3 -34378204#2 -34378204#1 -34378204#0 4039139#0 4039139#1 95500952#0 95500952#1 95500952#2 -4447087#0 523389755#0 523389755#1 523389755#2 538082811#15 538082811#0 538082811#1 538082811#2 538082811#3 538082811#4 538082811#5 538082811#6 538082811#7 4444153#0 4444153#1 4444153#2 4444153#3 4444153#4 4444153#5 4444153#6 4447065#7 4447065#8 4447065#9 4447065#10 -27600210#1 -27600210#0"/>
    </vehicle>
    <vehicle id="13" depart="26.00">
        <route edges="-27089069#1 -27089069#0 -231373089#2 -231373089#1 -231373089#0 -1318054076#12 -1318054076#11 -1318054076#10 52108083#0 52108083#1 52108083#2 161357556#0 -502174128#5 -502174128#4 -502174128#3 -502174128#2 -502174128#1 -502174128#0 -164286216#3 -164286216#2 -164286216#1 -164286216#0 -1290939474#2 -1290939474#1 -1290939474#0 -1290939473#1 -1290939473#0 -345617053#2 -345617053#1 -345617053#0 -1290939471 -1290939472 208763272 648289153#0 648289153#1 977481198#0 977481198#1 977481198#2 4447804#0 4447804#1 4447804#2 4447804#3 -247113362#3 -247113362#2 -247113362#1 -247113362#0"/>
    </vehicle>
    <vehicle id="14" depart="28.00">
        <route edges="59846917#1 59846917#2 53746251#6 53746251#7 53746251#8 53746251#9 538082811#9 538082811#10 538082811#11 538082811#12 538082811#13 538082811#14 538082811#15 4444146#0 4444146#1 4444146#2 208763263#0 208763263#1 208763263#2 208763263#3 208763263#4 208763263#5 208763262#0 208763262#1 208763262#2 208763262#3 208763262#4 678797225 330433007"/>
    </vehicle>
    <vehicle id="16" depart="32.00">
        <route edges="331415779 525305604#0 525305604#1 525305604#2 4472343#0 4472343#1 4472343#2 4472343#3 4472343#4 543204402#0 543204402#1 543204402#2 974421670 122617707#0 122617707#1 122617707#2 122617707#3 1219536457 1228936483 673557104#0 4447072#0 4447072#1 4447072#2 -4447074#1 -4447074#0 4447069#0 4447069#1 4447069#2 208763262#0 208763262#1 208763262#2 208763262#3 208763262#4 1073043102 1322347615 -977481198#6 -977481198#5 -977481198#4 -977481198#3 -977481198#2 -977481198#1 -977481198#0 -190909087#4 -190909087#3 -190909087#2 -190909087#1 -190909087#0 -1290939470 -1290939469#1 -1290939469#0 24016058#0 24016058#1 24016058#2 24016058#3 24016058#4 1201196829#0 1201196829#1 378989483#0 378989483#1 378989483#2 378989483#3 8412368#0 8412368#1 8412368#2 8412368#3 8412368#4"/>
    </vehicle>
    <vehicle id="17" depart="34.00">
        <route edges="208763262#2 208763262#3 208763262#4 1073043103 -648289152#5 -648289152#4 -648289152#3 -648289152#2 -648289152#1 -648289152#0 -648289150#2 -648289150#1 -648289150#0 -4447087#5 -4447087#4 4447075#0 4447075#1 4447075#2 4447075#3 4447075#4 4447075#5 4447075#6 -231373089#4 -231373089#3 27089069#0 27089069#1"/>
    </vehicle>
    <vehicle id="18" depart="36.00">
        <route edges="53746251#0 53746251#1 53746251#2 53746251#3 53746251#4 53746251#5 53746251#6 53746251#7 53746251#8 53746251#9 538082811#9 538082811#10 538082811#11 538082811#12 538082811#13 538082811#14 538082811#15 4444146#0 4444146#1 4444146#2 208763263#0 208763263#1 208763263#2 208763263#3 208763263#4 208763263#5 208763262#0 208763262#1 208763262#2 208763262#3 208763262#4 678797225 330433007"/>
    </vehicle>
    <vehicle id="19" depart="38.00">
        <route edges="638578600#0 638578600#1 638578600#2 638578600#3 638578600#4 638578600#5 638578600#6 1353412785#0 1353412785#1 1353412785#2 1219536458#0 1219536458#1 -25474003#2 -25474003#1 -25474003#0 27600643#0 27600643#1 602904955#0 602904955#1 602904955#2 1231728268 1231728266 523217748#0 523217748#1 523217748#2 523217748#3 -8413384 27600656#0 27600656#1"/>
    </vehicle>
    <vehicle id="20" depart="40.00">
        <route edges="4447079#0 4447079#1 4447079#2 1330305912#0 1330305912#1 -4450703#5 -4450703#4 -4450703#3 -4450703#2 -4450703#1 -4450703#0 -1310896363#3 -1310896363#2 -1310896363#1 -1310896363#0 -68951253#1 318523942#1 318523942#2 318523942#3 318523942#4 318523942#5 318523942#6 318523942#7 -1121983403#1 -1121983403#0 -37073509#1 -37073509#0 -138277195#1 -138277195#0"/>
    </vehicle>
    <vehicle id="21" depart="42.00">
        <route edges="1310896363#2 1310896363#3 4450703#0 1320186868#3 1320186868#4 1320186868#5 1320186868#6 -264313540#6 -264313540#5 -264313540#4 -264313540#3 -264313540#2 -264313540#1 -264313540#0 -164286214#7 -164286214#6 -164286214#5 -164286214#4 -164286214#3 -164286214#2 -164286214#1 -164286214#0 -648289151#3 -648289151#2 -648289151#1 -648289151#0 -4447087#5 -4447087#4 4447075#0 4447075#1 4447075#2 4447075#3 4447075#4 4447075#5 4447075#6 24038228#0 24038228#1 24038228#2 24038228#3 24038228#4 24038228#5 24038228#6 24038228#7 24038228#8 24038228#9 -52073596#2 -52073596#1 -52073596#0 -4082034#10 -4082034#9 -4082034#8 -4082034#7 -4082034#6 -4082034#5 -4082034#4 -4082034#3 -4082034#2 -4082034#1 -4082034#0"/>
    </vehicle>
    <vehicle id="23" depart="46.00">
        <route edges="-27089069#1 -27089069#0 231373089#3 231373089#4 24038228#0 24038228#1 24038228#2 24038228#3 24038228#4 24038228#5 24038228#6 24038228#7 24038228#8 24038228#9 -52073596#2 -52073596#1 -52073596#0 -4082034#10 -4082034#9 -4082034#8 -4082034#7 -4082034#6 -4082034#5 -4082034#4 -4082034#3 -4082034#2 -4082034#1 -4082034#0"/>
    </vehicle>
    <vehicle id="24" depart="48.00">
        <route edges="4444167#0 4444167#1 122617720#2 122617720#3 122617720#4 122617720#5 122617720#6 122617720#7 122617720#8 122617720#9 122617720#10 122617720#11 538082811#1 538082811#2 538082811#3 537495969#0 537495969#1 537495969#2 -52073597#4 -52073597#3 -52073597#2 -52073597#1 -52073597#0 -1231728267 -91095509 -4758579"/>
    </vehicle>
    <vehicle id="25" depart="50.00">
        <route edges="173285482#0 173285482#1 173285482#2 4447073#0 4447073#1 4447073#2 122617720#7 122617720#8 122617720#9 122617720#10 122617720#11 538082811#1 538082811#2 538082811#3 537495969#0 537495969#1 537495969#2 -52073597#4 -52073597#3 -52073597#2 -52073597#1 -52073597#0 -1231728267 8412462#0 8412462#1 -27600674"/>
    </vehicle>
    <vehicle id="26" depart="52.00">
        <route edges="1318054076#0 1318054076#1 1318054076#2 1318054076#3 1318054076#4 1318054076#5 1318054076#6 1318054076#7 1318054076#8 1318054076#9 52108083#0 52108083#1 52108083#2 161357556#0 -502174128#5 -502174128#4 -502174128#3 -502174128#2 -502174128#1 -502174128#0 -164286216#3 -164286216#2 -164286216#1 -164286216#0 -1290939474#2 -1290939474#1 -1290939474#0 -1290939473#1 -1290939473#0 -345617053#2 -345617053#1 -345617053#0 -1290939471 -1290939472 208763272 648289153#0 648289153#1 977481198#0 977481198#1 977481198#2 4447804#0 4447804#1 4447804#2 4447804#3 -247113362#3 -247113362#2 8412357#0 8412357#1"/>
    </vehicle>
    <vehicle id="27" depart="54.00">
        <route edges="4444184#0 4444184#1 4444184#2 4447065#1 4447065#2 4447063#0 4447063#1 4447063#2 4447063#3 4447063#4 4447063#5 4447063#6 4447063#7 4447063#8 537495962#0 537495962#1 537495962#2 538082811#7 538082811#8 538082811#9 538082811#10 538082811#11 538082811#12 538082811#13 538082811#14 538082811#15 4444146#0 4444146#1 4444146#2 208763263#0 208763263#1 208763263#2 208763263#3 208763263#4 208763263#5 208763262#0 208763262#1 208763262#2 208763262#3 208763262#4 678797225 330433007"/>
    </vehicle>
    <vehicle id="28" depart="56.00">
        <route edges="-538082812#7 -538082812#6 -538082812#5 -538082812#4 -538082812#3 -538082812#2 -538082812#1 -538082812#0 519905875#0 519905875#1 519905875#2 519905875#3 977539434#0 977539434#1 977539434#2 977539434#3 977539434#4 977539434#5 24038185#19 24038185#20 24038185#21 24038185#22 24038185#23 378989481#0 378989481#1 4444166#0 4444166#1"/>
    </vehicle>
    <vehicle id="29" depart="58.00">
        <route edges="-4082034#6 -4082034#5 4472356#0 4472356#1 4472356#2 4472356#3 4472356#4 4472356#5 4472356#6 4472356#7 34849332#0 34849332#1 34849332#2 4472357#0 4472357#1 4472357#2 4472358#3 4472358#4 4472358#5 24038185#0 24038185#1 24038185#2 24038185#3 24038185#4 24038185#5 24038185#6 24038185#7 24038185#8 24038185#9 24038185#10 24038185#11 24038185#12 24038185#13 24038185#14 24038185#15 264313540#0 264313540#1 264313540#2 264313540#3 264313540#4 264313540#5 264313540#6 -1320186868#6 -1320186868#5 -1320186868#4 -1320186868#3 -1320186868#2 -1320186868#1 -1320186868#0 -1318221181#3 8412377#0 8412377#1 -538082812#6"/>
    </vehicle>
    <vehicle id="30" depart="60.00">
        <route edges="974771593#0 974771593#1 4447063#3 4447063#4 4447063#5 4447063#6 4447063#7 4447063#8 537495962#0 537495962#1 537495962#2 538082811#7 538082811#8 538082811#9 538082811#10 538082811#11 523389756#0 523389756#1 523389756#2 523389756#3 4447087#0 4447087#1 4447087#2 4447087#3 4447087#4 4447087#5 648289151#0 648289151#1 648289151#2 648289151#3 164286214#0 164286214#1 164286214#2 164286214#3 164286214#4 164286214#5 164286214#6 164286214#7 24038185#16 24038185#17 24038185#18 24038185#19 24038185#20 24038185#21 24038185#22 24038185#23 378989481#0 378989481#1 378989481#2 378989481#3 378989481#4"/>
    </vehicle>
    <vehicle id="31" depart="62.00">
        <route edges="364792828#0 364792828#1 364792828#2 27088869#0 27088869#1 53355676#0 53355676#1 53355676#2 53355676#3 53355676#4 53355676#5 53355676#6 53355676#7 53355676#8 53355676#9 59846917#0 59846917#1 59846917#2 27600216#0 27600216#1 4444153#4 4444153#5 4444153#6 4444153#7 4444153#8 4444153#9"/>
    </vehicle>
    <vehicle id="32" depart="64.00">
        <route edges="53746251#0 53746251#1 53746251#2 53746251#3 53746251#4 53746251#5 53746251#6 53746251#7 53746251#8 53746251#9 538082811#9 538082811#10 538082811#11 538082811#12 538082811#13 538082811#14 538082811#15 538082811#0 538082811#1 -122617706#2 -122617706#1 -122617706#0 122617705#0 122617705#1 673557104#0 673557104#1 673557104#2 4463072#0 4463072#1"/>
    </vehicle>
    <vehicle id="33" depart="66.00">
        <route edges="1318052889 1318054309#3 1318054309#4 1318054309#5 1318054309#6 1318054309#7 24016102#13 24016102#14 24016102#15 24016102#16 1310896362#0 318523942#7 -1121983403#1 -1121983403#0 -37073509#1 -37073509#0 -138277195#1 -138277195#0"/>
    </vehicle>
    <vehicle id="34" depart="68.00">
        <route edges="1330305785#0 1330305785#1 1330305785#2 4450704#3 4450704#4 4450704#5 4450705#0 4450705#1 4450705#2 4450705#3 -264313540#3 -264313540#2 -264313540#1 -264313540#0 -164286214#7 -164286214#6 -164286214#5 -164286214#4 -164286214#3 -164286214#2 -164286214#1 -164286214#0 1290939474#0 1290939474#1 1290939474#2 164286216#0 164286216#1 164286216#2 164286216#3 502174128#0 502174128#1 502174128#2 502174128#3 502174128#4 502174128#5 -161357556#0 -52108083#2 -52108083#1 -52108083#0 -364792828#8 -364792828#7 -364792828#6 -364792828#5 -364792828#4 -364792828#3 -364792828#2 -364792828#1 -364792828#0"/>
    </vehicle>
    <vehicle id="35" depart="70.00">
        <route edges="1059912719 678797229 1073043098 678797225 4444189#0 4444189#1 4444189#2 4444189#3 4444189#4 975638905#0 975638905#1 247113362#0 247113362#1 8412357#0 8412357#1"/>
    </vehicle>
    <vehicle id="38" depart="76.00">
        <route edges="8412362#0 8412362#1 247113362#6 247113362#7 247113362#8 1290939469#0 1290939469#1 1290939470 190909087#0 190909087#1 190909087#2 190909087#3 190909087#4 345617051 345617052#0 345617052#1 1290939472 1290939471 345617053#0 345617053#1 345617053#2 1290939473#0 1290939473#1 1290939474#0 1290939474#1 1290939474#2 164286216#0 164286216#1 164286216#2 164286216#3 502174128#0 502174128#1 502174128#2 502174128#3 502174128#4 502174128#5 -161357556#0 -52108083#2 -52108083#1 -52108083#0 -1318054076#9 -1318054076#8 -1318054076#7 -1318054076#6 24038185#3 24038185#4 24038185#5 24038185#6 24038185#7 24038185#8 24038185#9"/>
    </vehicle>
    <vehicle id="39" depart="78.00">
        <route edges="1318054076#0 1318054076#1 1318054076#2 1318054076#3 1318054076#4 1318054076#5 1318054076#6 1318054076#7 1318054076#8 1318054076#9 -364792828#8 -364792828#7 -364792828#6 -364792828#5 -364792828#4 -364792828#3 -364792828#2 -364792828#1 -364792828#0"/>
    </vehicle>
    <vehicle id="40" depart="80.00">
        <route edges="364792828#0 -364792828#0"/>
    </vehicle>
    <vehicle id="41" depart="82.00">
        <route edges="4082034#0 4082034#1 4082034#2 4082034#3 4082034#4 4082034#5 4082034#6 4082034#7 4082034#8 4082034#9 4082034#10 52073596#0 52073596#1 52073596#2 52073596#3 52073596#4 52073596#5 59846917#0 59846917#1 59846917#2 27600216#0 27600216#1 4444153#4 4444153#5 4444153#6 4447065#7 4447065#8 4447065#9 4447065#10 24017674#0 24017674#1 791022796#2 791022796#3"/>
    </vehicle>
    <vehicle id="42" depart="84.00">
        <route edges="27447875#0 27447875#1 -24016058#3 -24016058#2 -24016058#1 -24016058#0 1290939469#0 1290939469#1 1290939470 190909087#0 190909087#1 190909087#2 190909087#3 190909087#4 345617051 345617050#0 345617050#1 -122617735#1 -122617735#0 580067988#0 580067988#1 580067990 -208763271#1 -208763271#0 -4447069#2 -4447069#1 -4447069#0 122617720#4 122617720#5 122617720#6 122617720#7 -27601196"/>
    </vehicle>
    <vehicle id="43" depart="86.00">
        <route edges="974771593#0 974771593#1 4447063#3 4447063#4 27600218#0 27600218#1 27600218#2 4444153#4 4444153#5 4444153#6 4447065#7 4447065#8 4447065#9 4447065#10 4447065#11 4447065#12 4447065#13 4447065#14 4447065#15 4447065#16 4447065#17 4447065#18 4447065#19 25112694#0 25112694#1 25112694#2"/>
    </vehicle>
    <vehicle id="44" depart="88.00">
        <route edges="-27089069#1 -27089069#0 -231373089#2 -231373089#1 -231373089#0 -1318054076#12 -1318054076#11 -1318054076#10 -1318054076#9 -1318054076#8 -1318054076#7 -1318054076#6 24038185#3 24038185#4 24038185#5 24038185#6 24038185#7 24038185#8 24038185#9 24038185#10 24016102#6 24016102#7 24016102#8 24016102#9 24016102#10 24016102#11 24016102#12 24016102#13 24016102#14 24016102#15 24016102#16 1310896362#0 318523942#7 -1121983403#1 -1121983403#0 -37073509#1 -37073509#0 -138277195#1 -138277195#0"/>
    </vehicle>
    <vehicle id="45" depart="90.00">
        <route edges="-27089069#1 -27089069#0 -231373089#2 -231373089#1 -231373089#0 -1318054076#12 -1318054076#11 -1318054076#10 -1318054076#9 -1318054076#8 -1318054076#7 -1318054076#6 24038185#3 24038185#4 24038185#5 24038185#6 24038185#7 24038185#8 24038185#9 24038185#10 24038185#11 24038185#12 24038185#13 24038185#14 24038185#15 24038185#16 24038185#17 24038185#18 24038185#19 24038185#20 24038185#21 24038185#22 24038185#23 378989481#0 378989481#1 378989481#2 378989481#3 378989481#4"/>
    </vehicle>
    <vehicle id="46" depart="92.00">
        <route edges="4758579 -331451044 -523217748#3 -523217748#2 -523217748#1 -523217748#0 -1231728266 -1231728268 -602904955#2 -602904955#1 -602904955#0 -27600643#1 -27600643#0 25474003#0 25474003#1 25474003#2 1219536456#0 1219536456#1 1353412784#0 1353412784#1 1353412784#2 1228936483 673557104#0 4447072#0 4447072#1 4447072#2 -4447074#1 -4447074#0 4447069#0 4447069#1 4447069#2 208763262#0 208763262#1 208763262#2 208763262#3 208763262#4 1073043102 1322347615 -977481198#6 -977481198#5 -977481198#4 -977481198#3 -977481198#2 -977481198#1 -977481198#0 -190909087#4 -190909087#3 -190909087#2 -190909087#1 -190909087#0 -1290939470 -1290939469#1 -1290939469#0 1204001591#0 1204001591#1 205674204#0 205674204#1"/>
    </vehicle>
    <vehicle id="48" depart="96.00">
        <route edges="974771593#0 974771593#1 4447063#3 4447063#4 4447063#5 4447063#6 4447063#7 4447063#8 537495962#0 537495962#1 537495962#2 538082811#7 538082811#8 538082811#9 538082811#10 -231373089#8 -231373089#7 -231373089#6 -231373089#5 -231373089#4 -231373089#3 -231373089#2 -231373089#1 -231373089#0 -1318054076#12 -1318054076#11 -1318054076#10 -364792828#8 -364792828#7 -364792828#6 4472350#0 4472350#1 27088908#0 27088908#1"/>
    </vehicle>
    <vehicle id="50" depart="100.00">
        <route edges="-205674204#5 -205674204#4 -205674204#3 -205674204#2 -205674204#1 -205674204#0 -1204001591#1 -1204001591#0 24016058#0 24016058#1 24016058#2 24016058#3 24016058#4 1201196829#0 1201196829#1 378989481#0 378989481#1 4444166#0 4444166#1"/>
    </vehicle>
    <vehicle id="51" depart="102.00">
        <route edges="4447065#0 4447065#1 4447065#2 4447065#3 4447065#4 4447065#5 4447065#6 4447065#7 4447065#8 4447065#9 4447065#10 4447065#11 4447065#12 4447065#13 4447065#14 4447065#15 4447065#16 4447065#17 4447065#18 4447065#19 59846904#0 59846904#1 59846904#2 59846904#3 4472356#5 4472356#6 4472356#7 34849332#0 34849332#1 34849332#2 4472357#0 4472357#1 4472357#2 4472358#3 4472358#4 4472358#5 4472350#0 4472350#1 27088908#0 27088908#1"/>
    </vehicle>
    <vehicle id="52" depart="104.00">
        <route edges="1318054076#0 1318054076#1 1318054076#2 1318054076#3 1318054076#4 1318054076#5 24038185#3 24038185#4 24038185#5 24038185#6 24038185#7 24038185#8 24038185#9 24038185#10 24038185#11 24038185#12 24038185#13 24038185#14 24038185#15 24038185#16 24038185#17 24038185#18 24038185#19 24038185#20 24038185#21 24038185#22 24038185#23 378989481#0 378989481#1 378989481#2 378989481#3 378989481#4"/>
    </vehicle>
    <vehicle id="53" depart="106.00">
        <route edges="-27600656#1 -27600656#0 8412462#0 8412462#1 8412462#2 8412462#3 27600218#0 27600218#1 27600218#2 4444153#4 4444153#5 4444153#6 4447065#7 4447065#8 4447065#9 4447065#10 24017674#0 24017674#1 24017674#2"/>
    </vehicle>
    <vehicle id="54" depart="108.00">
        <route edges="27600212#0 27600212#1 4447065#14 4447065#15 4447065#16 4447065#17 4447065#18 4447065#19 59846904#0 59846904#1 59846904#2 59846904#3 4472356#5 4472356#6 4472356#7 34849332#0 34849332#1 34849332#2 4472357#0 4472357#1 4472357#2 4472357#3 4472357#4 4472357#5 -1318054076#12 -1318054076#11 -1318054076#10 52108083#0 52108083#1 52108083#2 161357556#0 -502174128#5 -502174128#4 -502174128#3 -502174128#2 -502174128#1 -502174128#0 -164286216#3 -164286216#2 -164286216#1 -164286216#0 -1290939474#2 -1290939474#1 -1290939474#0 -1290939473#1 -1290939473#0 -345617053#2 -345617053#1 -345617053#0 -1290939471 -1290939472 208763272 648289153#0 648289153#1 -190909087#4 -190909087#3 -190909087#2 -190909087#1 -190909087#0 -1290939470 -1290939469#1 -1290939469#0 -247113362#8 -247113362#7 8412361#0 8412361#1 8412361#2"/>
    </vehicle>
    <vehicle id="55" depart="110.00">
        <route edges="648586621#0 648586621#1 648586621#2 974421670 122617707#0 122617707#1 122617707#2 122617707#3 4444148#0 4444148#1 4444148#2 122617706#0 122617706#1 122617706#2 538082811#2 538082811#3 538082811#4 538082811#5 538082811#6 538082811#7 538082811#8 538082811#9 538082811#10 -231373089#8 -231373089#7 -231373089#6 -231373089#5 -231373089#4 -231373089#3 -231373089#2 -231373089#1 -231373089#0 -1318054076#12 -1318054076#11 -1318054076#10 -364792828#8 -364792828#7 -364792828#6 -364792828#5 -364792828#4 -364792828#3 -364792828#2 -364792828#1 -364792828#0"/>
    </vehicle>
    <vehicle id="56" depart="112.00">
        <route edges="27601196 122617720#8 122617720#9 122617720#10 122617720#11 538082811#1 538082811#2 538082811#3 538082811#4 538082811#5 538082811#6 538082811#7 4444153#0 4444153#1 4444153#2 4444153#3 4444153#4 4444153#5 4444153#6 4447065#7 4447065#8 4447065#9 4447065#10 4447065#11 4447065#12 4447065#13 -27600212#1 -27600212#0"/>
    </vehicle>
    <vehicle id="57" depart="114.00">
        <route edges="8412362#0 8412362#1 247113362#6 247113362#7 247113362#8 1290939469#0 1290939469#1 1290939470 190909087#0 190909087#1 4444186#3 4444186#4 4444186#5 4453433#0 4453433#1 4453433#2 -27619127#2 -27619127#1 -27619127#0 -977539434#5 -977539434#4 -977539434#3 -977539434#2 -977539434#1 -977539434#0 -519905875#3 -519905875#2 -519905875#1 -519905875#0 538082812#0 538082812#1 538082812#2 538082812#3 538082812#4 538082812#5 538082812#6 538082812#7"/>
    </vehicle>
    <vehicle id="58" depart="116.00">
        <route edges="1318054309#0 1318054309#1 1318054309#2 1318054309#3 1318054309#4 1318054309#5 1318054309#6 1318054309#7 -24016102#12 -24016102#11 -24016102#10 -24016102#9 5103455#0 5103455#1 5103455#2 264313540#2 264313540#3 -4450705#3 -4450705#2 -4450705#1 -4450705#0 977539434#0 977539434#1 977539434#2 977539434#3 977539434#4 977539434#5 24038185#19 24038185#20 24038185#21 24038185#22 24038185#23 378989481#0 378989481#1 378989481#2 378989481#3 378989481#4"/>
    </vehicle>
    <vehicle id="59" depart="118.00">
        <route edges="40894522#0 40894522#1 791022796#0 791022796#1 791022796#2 53746251#1 53746251#2 4447065#9 4447065#10 -27600210#1 -27600210#0"/>
    </vehicle>
    <vehicle id="60" depart="120.00">
        <route edges="4472370#0 4472370#1 4472370#2 4447065#4 4447065#5 4447065#6 4447065#7 4447065#8 4447065#9 4447065#10 4447065#11 4447065#12 4447065#13 4447065#14 4447065#15 4447065#16 4447065#17 4447065#18 4447065#19 59846904#0 59846904#1 59846904#2 59846904#3 4472356#5 4472356#6 4472356#7 34849332#0 34849332#1 34849332#2 4472357#0 4472357#1 4472357#2 4472358#3 4472358#4 4472358#5 4472350#0 4472350#1 27088908#0 27088908#1"/>
    </vehicle>
    <vehicle id="61" depart="122.00">
        <route edges="4472370#0 4472370#1 4472370#2 4447065#4 4447065#5 4447065#6 4447065#7 4447065#8 4447065#9 4447065#10 4447065#11 4447065#12 4447065#13 4447065#14 4447065#15 4447065#16 4447065#17 4447065#18 4447065#19 59846904#0 59846904#1 59846904#2 59846904#3 4472356#5 4472356#6 4472356#7 34849332#0 34849332#1 34849332#2 4472357#0 4472357#1 4472357#2 4472358#3 4472358#4 4472358#5 4472350#0 4472350#1 27088908#0 27088908#1"/>
    </vehicle>
    <vehicle id="63" depart="126.00">
        <route edges="-205674204#5 -205674204#4 -205674204#3 -205674204#2 -205674204#1 -205674204#0 -1204001591#1 -1204001591#0 -247113362#8 -247113362#7 -247113362#6 -247113362#5 -247113362#4 -247113362#3 -247113362#2 8412357#0 8412357#1"/>
    </vehicle>
    <vehicle id="65" depart="130.00">
        <route edges="1330305785#0 1330305785#1 1330305785#2 4450704#3 4450704#4 4450704#5 4450705#0 4450705#1 4450705#2 4450705#3 4450705#4 4453435#0 4453435#1 4453435#2 4453435#3 4453435#4 -24016102#10 -24016102#9 -24016102#8 -24016102#7 -24016102#6 -24016102#5 -24016102#4 -24016102#3 -24016102#2 -24016102#1 -24016102#0 -164286216#3 -164286216#2 -164286216#1"/>
    </vehicle>
    <vehicle id="66" depart="132.00">
        <route edges="648586621#0 648586621#1 648586621#2 974421670 122617707#0 122617707#1 122617707#2 122617707#3 1219536457 1228936483 673557104#0 4447072#0 4447072#1 4447072#2 -4447074#1 -4447074#0 4447069#0 4447069#1 4447069#2 208763262#0 208763262#1 208763262#2 208763262#3 208763262#4 1073043102 1322347615 -977481198#6 -977481198#5 -977481198#4 -977481198#3 4447804#0 4447804#1 4447804#2 4447804#3 247113362#4 247113362#5 247113362#6 8412361#0 8412361#1 8412361#2"/>
    </vehicle>
    <vehicle id="69" depart="138.00">