<configuration>
  <input>
    <net-file value="map.net.xml"/> 
    <route-files value="map.rou.xml"/> 		
    <additional-files value="map.poly.xml"/>
  </input>
  <time>
    <begin value="0"/>
    <end value="1000"/>
    <step-length value="0.2"/> 
  </time>
  <gui_only>
    <delay value="500"/>
  </gui_only>
</configuration>
