<?xml version="1.0" encoding="UTF-8"?>

<!-- generated on 2025-07-01 10:22:02.353615 by randomTrips.py v1_22_0+0002-63e50f52594
<configuration>
    <net-file value="map.net.xml"/>
    <route-file value="map.rou.xml"/>
    <vehicle-class value="passenger"/>
    <validate value="True"/>
    <end value="1000.0"/>
    <period value="0.5"/>
</configuration>
-->

<!-- generated on 2025-07-01 10:22:02 by Eclipse SUMO duarouter Version 1.22.0
<duarouterConfiguration xmlns:xsi="http://www.w3.org/2001/XMLSchema-instance" xsi:noNamespaceSchemaLocation="http://sumo.dlr.de/xsd/duarouterConfiguration.xsd">

    <input>
        <net-file value="map.net.xml"/>
        <route-files value="trips.trips.xml"/>
    </input>

    <output>
        <output-file value="trips.trips.xml.tmp"/>
        <alternatives-output value="NUL"/>
        <write-trips value="true"/>
    </output>

    <time>
        <begin value="0.0"/>
        <end value="1000.0"/>
    </time>

    <report>
        <no-warnings value="true"/>
        <ignore-errors value="true"/>
        <no-step-log value="true"/>
    </report>

</duarouterConfiguration>
-->

<routes xmlns:xsi="http://www.w3.org/2001/XMLSchema-instance" xsi:noNamespaceSchemaLocation="http://sumo.dlr.de/xsd/routes_file.xsd">
    <vType id="passenger" vClass="passenger"/>
    <trip id="0" type="passenger" depart="0.00" from="4444153#4" to="-1290939474#0"/>
    <trip id="1" type="passenger" depart="0.50" from="-977481198#6" to="-519905875#0"/>
    <trip id="2" type="passenger" depart="1.00" from="4450706#2" to="4447065#16"/>
    <trip id="3" type="passenger" depart="1.50" from="553772525" to="-231373089#1"/>
    <trip id="4" type="passenger" depart="2.00" from="208763262#2" to="-1310896362#0"/>
    <trip id="5" type="passenger" depart="2.50" from="-519905875#3" to="24038228#3"/>
    <trip id="6" type="passenger" depart="3.00" from="-1290939474#2" to="-4447074#0"/>
    <trip id="7" type="passenger" depart="3.50" from="4444184#2" to="27089069#1"/>
    <trip id="8" type="passenger" depart="4.00" from="-52073595#1" to="345617050#1"/>
    <trip id="9" type="passenger" depart="4.50" from="4902489#2" to="-1121983403#1"/>
    <trip id="10" type="passenger" depart="5.00" from="4902488#1" to="4447074#1"/>
    <trip id="11" type="passenger" depart="5.50" from="1310896362#1" to="-27619127#5"/>
    <trip id="12" type="passenger" depart="6.00" from="8412368#0" to="1290939470"/>
    <trip id="13" type="passenger" depart="6.50" from="-24016058#1" to="-24016058#4"/>
    <trip id="14" type="passenger" depart="7.00" from="52073597#4" to="364792828#3"/>
    <trip id="15" type="passenger" depart="7.50" from="4902489#0" to="4450704#3"/>
    <trip id="16" type="passenger" depart="8.00" from="27088869#0" to="8413388#1"/>
    <trip id="17" type="passenger" depart="8.50" from="1353412784#2" to="27447880#1"/>
    <trip id="18" type="passenger" depart="9.00" from="5103458#1" to="378989483#3"/>
    <trip id="19" type="passenger" depart="9.50" from="525305604#2" to="318523942#1"/>
    <trip id="20" type="passenger" depart="10.00" from="4447079#2" to="-1318221181#0"/>
    <trip id="21" type="passenger" depart="10.50" from="-52073596#5" to="1033801614#2"/>
    <trip id="22" type="passenger" depart="11.00" from="-205674204#3" to="-52073596#3"/>
    <trip id="23" type="passenger" depart="11.50" from="-24016102#15" to="-977481198#3"/>
    <trip id="24" type="passenger" depart="12.00" from="4444153#0" to="1318054309#6"/>
    <trip id="25" type="passenger" depart="12.50" from="1320186868#5" to="-4450703#5"/>
    <trip id="26" type="passenger" depart="13.00" from="-68951253#1" to="673557104#0"/>
    <trip id="27" type="passenger" depart="13.50" from="4444184#0" to="370683936"/>
    <trip id="28" type="passenger" depart="14.00" from="-378989483#2" to="4450704#2"/>
    <trip id="29" type="passenger" depart="14.50" from="-364792828#6" to="1351892769"/>
    <trip id="30" type="passenger" depart="15.00" from="977481198#0" to="4444153#3"/>
    <trip id="31" type="passenger" depart="15.50" from="27600218#2" to="4447065#8"/>
    <trip id="32" type="passenger" depart="16.00" from="52073596#4" to="4472352#7"/>
    <trip id="33" type="passenger" depart="16.50" from="-52073597#0" to="-1310896363#1"/>
    <trip id="34" type="passenger" depart="17.00" from="122617720#3" to="-648489614#0"/>
    <trip id="37" type="passenger" depart="18.50" from="4444186#6" to="161357556#5"/>
    <trip id="38" type="passenger" depart="19.00" from="638578600#2" to="24017627#0"/>
    <trip id="39" type="passenger" depart="19.50" from="-648586621#2" to="-538082812#1"/>
    <trip id="40" type="passenger" depart="20.00" from="27600656#0" to="-648289152#0"/>
    <trip id="41" type="passenger" depart="20.50" from="34378204#3" to="580067988#2"/>
    <trip id="42" type="passenger" depart="21.00" from="164286214#6" to="-502174128#1"/>
    <trip id="43" type="passenger" depart="21.50" from="977539434#3" to="24038228#8"/>
    <trip id="44" type="passenger" depart="22.00" from="-231373089#8" to="-1318221181#2"/>
    <trip id="45" type="passenger" depart="22.50" from="-247113362#1" to="4082034#4"/>
    <trip id="46" type="passenger" depart="23.00" from="4472358#4" to="208763262#1"/>
    <trip id="47" type="passenger" depart="23.50" from="-164286214#2" to="1353412784#2"/>
    <trip id="48" type="passenger" depart="24.00" from="977539434#1" to="25468017#4"/>
    <trip id="49" type="passenger" depart="24.50" from="8413388#0" to="523389756#3"/>
    <trip id="50" type="passenger" depart="25.00" from="-122617706#1" to="4450699#8"/>
    <trip id="51" type="passenger" depart="25.50" from="4447065#6" to="264313540#5"/>
    <trip id="52" type="passenger" depart="26.00" from="-68951253#0" to="4444153#4"/>
    <trip id="53" type="passenger" depart="26.50" from="-247113362#3" to="231373089#2"/>
    <trip id="54" type="passenger" depart="27.00" from="24016102#6" to="8412359#1"/>
    <trip id="55" type="passenger" depart="27.50" from="53746251#6" to="-648289152#1"/>
    <trip id="56" type="passenger" depart="28.00" from="24038228#1" to="-4039139#0"/>
    <trip id="57" type="passenger" depart="28.50" from="638578600#0" to="53355676#8"/>
    <trip id="58" type="passenger" depart="29.00" from="1219536456#1" to="4444153#1"/>
    <trip id="59" type="passenger" depart="29.50" from="37073509#1" to="-27619127#1"/>
    <trip id="60" type="passenger" depart="30.00" from="4472343#2" to="27088860#1"/>
    <trip id="61" type="passenger" depart="30.50" from="4472356#2" to="25474003#0"/>
    <trip id="62" type="passenger" depart="31.00" from="-1030132475" to="122617720#6"/>
    <trip id="63" type="passenger" depart="31.50" from="-1290939469#0" to="648289152#3"/>
    <trip id="64" type="passenger" depart="32.00" from="537495962#0" to="5103458#2"/>
    <trip id="65" type="passenger" depart="32.50" from="122617707#2" to="-138277195#1"/>
    <trip id="66" type="passenger" depart="33.00" from="53746251#9" to="8412355#1"/>
    <trip id="67" type="passenger" depart="33.50" from="-231373089#2" to="24038185#5"/>
    <trip id="68" type="passenger" depart="34.00" from="-164286216#1" to="4472336#1"/>
    <trip id="70" type="passenger" depart="35.00" from="24038185#17" to="27447820#2"/>
    <trip id="71" type="passenger" depart="35.50" from="-648586621#2" to="53746251#1"/>
    <trip id="72" type="passenger" depart="36.00" from="208763262#4" to="-4450705#2"/>
    <trip id="73" type="passenger" depart="36.50" from="27089069#0" to="4450704#3"/>
    <trip id="74" type="passenger" depart="37.00" from="-4450703#3" to="122617707#1"/>
    <trip id="76" type="passenger" depart="38.00" from="231373089#8" to="247113362#8"/>
    <trip id="77" type="passenger" depart="38.50" from="-25467965#3" to="-519905875#2"/>
    <trip id="78" type="passenger" depart="39.00" from="1310896019#1" to="345617050#0"/>
    <trip id="79" type="passenger" depart="39.50" from="-52073597#2" to="-502174128#2"/>
    <trip id="80" type="passenger" depart="40.00" from="-164286216#3" to="4082034#9"/>
    <trip id="81" type="passenger" depart="40.50" from="-52073597#0" to="59846904#5"/>
    <trip id="82" type="passenger" depart="41.00" from="525305604#0" to="-164286216#1"/>
    <trip id="83" type="passenger" depart="41.50" from="-523217748#3" to="4447063#7"/>
    <trip id="84" type="passenger" depart="42.00" from="-502174128#3" to="-264313540#2"/>
    <trip id="85" type="passenger" depart="42.50" from="648586621#2" to="27601236#2"/>
    <trip id="86" type="passenger" depart="43.00" from="24038185#14" to="4472356#7"/>
    <trip id="88" type="passenger" depart="44.00" from="-24016102#10" to="208763271#1"/>
    <trip id="90" type="passenger" depart="45.00" from="4450704#4" to="4447065#12"/>
    <trip id="91" type="passenger" depart="45.50" from="971402423#1" to="-24016102#1"/>
    <trip id="92" type="passenger" depart="46.00" from="164286216#2" to="1290939473#0"/>
    <trip id="93" type="passenger" depart="46.50" from="525305604#2" to="-538082812#4"/>
    <trip id="94" type="passenger" depart="47.00" from="-4447069#0" to="24016102#13"/>
    <trip id="95" type="passenger" depart="47.50" from="208763262#2" to="-977481198#3"/>
    <trip id="96" type="passenger" depart="48.00" from="-614904273#2" to="648289151#0"/>
    <trip id="98" type="passenger" depart="49.00" from="27600210#0" to="-1320186868#2"/>
    <trip id="99" type="passenger" depart="49.50" from="977539434#5" to="519905875#3"/>
    <trip id="101" type="passenger" depart="50.50" from="52108083#0" to="-364792828#4"/>
    <trip id="102" type="passenger" depart="51.00" from="24038185#8" to="-4450705#4"/>
    <trip id="103" type="passenger" depart="51.50" from="164286216#0" to="-161357556#0"/>
    <trip id="104" type="passenger" depart="52.00" from="1353412784#2" to="971402423#2"/>
    <trip id="105" type="passenger" depart="52.50" from="-676116938" to="4472356#6"/>
    <trip id="106" type="passenger" depart="53.00" from="24016102#8" to="208763262#2"/>
    <trip id="107" type="passenger" depart="53.50" from="8412368#1" to="977539434#0"/>
    <trip id="108" type="passenger" depart="54.00" from="27600218#0" to="4450699#5"/>
    <trip id="109" type="passenger" depart="54.50" from="-34378204#1" to="1087991825#1"/>
    <trip id="111" type="passenger" depart="55.50" from="27447820#0" to="4453434#0"/>
    <trip id="112" type="passenger" depart="56.00" from="-161357556#0" to="331451044"/>
    <trip id="113" type="passenger" depart="56.50" from="24038228#4" to="523217748#0"/>
    <trip id="114" type="passenger" depart="57.00" from="-345617053#0" to="8412368#3"/>
    <trip id="115" type="passenger" depart="57.50" from="-205674204#3" to="-4082034#5"/>
    <trip id="116" type="passenger" depart="58.00" from="34855465#0" to="4447065#15"/>
    <trip id="117" type="passenger" depart="58.50" from="-523217748#0" to="-25112694#1"/>
    <trip id="118" type="passenger" depart="59.00" from="543204402#1" to="-538082812#1"/>
    <trip id="119" type="passenger" depart="59.50" from="34855465#0" to="378989483#4"/>
    <trip id="120" type="passenger" depart="60.00" from="205674204#5" to="330433007"/>
    <trip id="121" type="passenger" depart="60.50" from="25468017#1" to="648586621#1"/>
    <trip id="122" type="passenger" depart="61.00" from="-4450705#0" to="4450699#2"/>
    <trip id="123" type="passenger" depart="61.50" from="-538082812#0" to="161357556#5"/>
    <trip id="124" type="passenger" depart="62.00" from="4447065#12" to="1201196829#0"/>
    <trip id="125" type="passenger" depart="62.50" from="122617720#4" to="4453435#2"/>
    <trip id="126" type="passenger" depart="63.00" from="-173285482#2" to="24017627#0"/>
    <trip id="127" type="passenger" depart="63.50" from="977539434#4" to="977539434#1"/>
    <trip id="128" type="passenger" depart="64.00" from="-190909087#0" to="-4450705#4"/>
    <trip id="129" type="passenger" depart="64.50" from="-676116938" to="648489614#0"/>
    <trip id="130" type="passenger" depart="65.00" from="537495962#2" to="537495962#0"/>
    <trip id="131" type="passenger" depart="65.50" from="1320186868#5" to="-34378204#0"/>
    <trip id="132" type="passenger" depart="66.00" from="519905875#2" to="4447075#6"/>
    <trip id="134" type="passenger" depart="67.00" from="4444186#4" to="-1201196829#1"/>
    <trip id="135" type="passenger" depart="67.50" from="502174128#3" to="1201196829#0"/>
    <trip id="136" type="passenger" depart="68.00" from="4447063#3" to="676116938"/>
    <trip id="138" type="passenger" depart="69.00" from="-24016102#7" to="27447880#2"/>
    <trip id="139" type="passenger" depart="69.50" from="-977481198#3" to="364792828#4"/>
    <trip id="141" type="passenger" depart="70.50" from="4444148#1" to="-648289152#2"/>
    <trip id="142" type="passenger" depart="71.00" from="24038219#2" to="59846904#5"/>
    <trip id="143" type="passenger" depart="71.50" from="52073597#2" to="-231373089#8"/>
    <trip id="144" type="passenger" depart="72.00" from="208763262#4" to="-977481198#1"/>
    <trip id="145" type="passenger" depart="72.50" from="-1087991825#1" to="4472352#1"/>
    <trip id="146" type="passenger" depart="73.00" from="4444153#2" to="-648289151#3"/>
    <trip id="147" type="passenger" depart="73.50" from="4453431#2" to="27447880#0"/>
    <trip id="148" type="passenger" depart="74.00" from="208763263#4" to="-1204001591#1"/>
    <trip id="149" type="passenger" depart="74.50" from="-190909087#2" to="537495969#1"/>
    <trip id="150" type="passenger" depart="75.00" from="59846904#5" to="27281303#0"/>
    <trip id="151" type="passenger" depart="75.50" from="519905875#3" to="318523942#7"/>
    <trip id="152" type="passenger" depart="76.00" from="-27619127#0" to="-25468017#4"/>
    <trip id="153" type="passenger" depart="76.50" from="122617707#3" to="580067989"/>
    <trip id="154" type="passenger" depart="77.00" from="4472359#3" to="523389756#3"/>
    <trip id="155" type="passenger" depart="77.50" from="580067990" to="-4450705#0"/>
    <trip id="156" type="passenger" depart="78.00" from="-614904273#1" to="-24016102#14"/>
    <trip id="157" type="passenger" depart="78.50" from="4472356#4" to="538082812#0"/>
    <trip id="158" type="passenger" depart="79.00" from="173285482#2" to="378989483#5"/>
    <trip id="159" type="passenger" depart="79.50" from="-34378204#1" to="648289152#4"/>
    <trip id="161" type="passenger" depart="80.50" from="4902489#4" to="537495962#2"/>
    <trip id="162" type="passenger" depart="81.00" from="-1290939474#0" to="4450706#0"/>
    <trip id="163" type="passenger" depart="81.50" from="1290939472" to="648289152#5"/>
    <trip id="164" type="passenger" depart="82.00" from="4902486#0" to="53355676#0"/>
    <trip id="165" type="passenger" depart="82.50" from="4902489#4" to="-648289152#5"/>
    <trip id="166" type="passenger" depart="83.00" from="4472357#5" to="-24016102#6"/>
    <trip id="167" type="passenger" depart="83.50" from="53746251#2" to="523389756#1"/>
    <trip id="168" type="passenger" depart="84.00" from="-52073595#3" to="502174128#1"/>
    <trip id="169" type="passenger" depart="84.50" from="24017627#4" to="1219536458#0"/>
    <trip id="170" type="passenger" depart="85.00" from="4472359#2" to="-52073595#1"/>
    <trip id="171" type="passenger" depart="85.50" from="-1290939473#0" to="-4447068#0"/>
    <trip id="172" type="passenger" depart="86.00" from="1231728268" to="53355676#1"/>
    <trip id="173" type="passenger" depart="86.50" from="8412462#3" to="-977481198#4"/>
    <trip id="174" type="passenger" depart="87.00" from="4444153#7" to="164286214#4"/>
    <trip id="175" type="passenger" depart="87.50" from="95500953#1" to="264313540#5"/>
    <trip id="176" type="passenger" depart="88.00" from="676116938" to="-247113362#5"/>
    <trip id="177" type="passenger" depart="88.50" from="8413384" to="-4039139#0"/>
    <trip id="178" type="passenger" depart="89.00" from="8412459#1" to="-648289152#3"/>
    <trip id="179" type="passenger" depart="89.50" from="-24016102#9" to="231373089#2"/>
    <trip id="180" type="passenger" depart="90.00" from="4450704#3" to="122617707#3"/>
    <trip id="181" type="passenger" depart="90.50" from="364792828#8" to="247113362#0"/>
    <trip id="182" type="passenger" depart="91.00" from="138277195#1" to="318523942#0"/>
    <trip id="183" type="passenger" depart="91.50" from="-648289151#2" to="4447087#3"/>
    <trip id="184" type="passenger" depart="92.00" from="-1073043099#1" to="648289151#3"/>
    <trip id="187" type="passenger" depart="93.50" from="1318221181#2" to="-164286216#0"/>
    <trip id="188" type="passenger" depart="94.00" from="4447063#4" to="122617737#1"/>
    <trip id="189" type="passenger" depart="94.50" from="122617720#11" to="52073597#3"/>
    <trip id="192" type="passenger" depart="96.00" from="164286216#2" to="1087991825#0"/>
    <trip id="193" type="passenger" depart="96.50" from="-25474003#2" to="205674204#5"/>
    <trip id="194" type="passenger" depart="97.00" from="678797229" to="4447065#17"/>
    <trip id="195" type="passenger" depart="97.50" from="59846904#4" to="378989481#4"/>
    <trip id="196" type="passenger" depart="98.00" from="1219536458#1" to="27447820#0"/>
    <trip id="197" type="passenger" depart="98.50" from="-1030132475" to="1030132475"/>
    <trip id="198" type="passenger" depart="99.00" from="208763271#1" to="318523942#4"/>
    <trip id="199" type="passenger" depart="99.50" from="4444186#5" to="24017762#0"/>
    <trip id="200" type="passenger" depart="100.00" from="24016058#4" to="-4450705#4"/>
    <trip id="201" type="passenger" depart="100.50" from="24038185#15" to="59846904#0"/>
    <trip id="202" type="passenger" depart="101.00" from="4472359#3" to="-364792828#8"/>
    <trip id="203" type="passenger" depart="101.50" from="-231373089#1" to="247113362#5"/>
    <trip id="204" type="passenger" depart="102.00" from="4444146#2" to="1290939469#0"/>
    <trip id="205" type="passenger" depart="102.50" from="502174128#4" to="4453435#1"/>
    <trip id="206" type="passenger" depart="103.00" from="4447065#13" to="-519905875#2"/>
    <trip id="207" type="passenger" depart="103.50" from="-4450703#0" to="-1290939473#1"/>
    <trip id="208" type="passenger" depart="104.00" from="-602904955#0" to="24038185#14"/>
    <trip id="209" type="passenger" depart="104.50" from="52108083#1" to="-164286216#3"/>
    <trip id="210" type="passenger" depart="105.00" from="202498505#2" to="4082034#7"/>
    <trip id="211" type="passenger" depart="105.50" from="-4447087#0" to="4447073#2"/>
    <trip id="213" type="passenger" depart="106.50" from="4444186#7" to="-1121983403#0"/>
    <trip id="214" type="passenger" depart="107.00" from="4453435#2" to="4472352#0"/>
    <trip id="215" type="passenger" depart="107.50" from="-24016102#6" to="208763262#4"/>
    <trip id="217" type="passenger" depart="108.50" from="25112694#1" to="-1320186868#2"/>
    <trip id="218" type="passenger" depart="109.00" from="-614904273#1" to="52073597#3"/>
    <trip id="219" type="passenger" depart="109.50" from="24016102#9" to="4472371#0"/>
    <trip id="220" type="passenger" depart="110.00" from="4447063#8" to="975638905#0"/>
    <trip id="221" type="passenger" depart="110.50" from="34855465#1" to="8412356#2"/>
    <trip id="222" type="passenger" depart="111.00" from="543204402#2" to="378989481#0"/>
    <trip id="224" type="passenger" depart="112.00" from="5103458#2" to="27447820#0"/>
    <trip id="225" type="passenger" depart="112.50" from="580067988#3" to="4453432#1"/>
    <trip id="226" type="passenger" depart="113.00" from="24038185#17" to="-648289151#0"/>
    <trip id="227" type="passenger" depart="113.50" from="-614904272" to="4444153#0"/>
    <trip id="229" type="passenger" depart="114.50" from="4082034#7" to="-8413384"/>
    <trip id="230" type="passenger" depart="115.00" from="-205674204#0" to="-977539434#5"/>
    <trip id="231" type="passenger" depart="115.50" from="-977481198#2" to="122617720#10"/>
    <trip id="232" type="passenger" depart="116.00" from="27281303#0" to="-27281303#1"/>
    <trip id="233" type="passenger" depart="116.50" from="-52073597#3" to="4447072#2"/>
    <trip id="234" type="passenger" depart="117.00" from="4447087#1" to="-164286214#1"/>
    <trip id="235" type="passenger" depart="117.50" from="190909087#1" to="27088908#0"/>
    <trip id="236" type="passenger" depart="118.00" from="205674204#1" to="-4450703#2"/>
    <trip id="237" type="passenger" depart="118.50" from="208763262#0" to="59846904#5"/>
    <trip id="238" type="passenger" depart="119.00" from="34378204#2" to="4447073#1"/>
    <trip id="239" type="passenger" depart="119.50" from="523389756#0" to="4472343#3"/>
    <trip id="240" type="passenger" depart="120.00" from="1353412785#1" to="-1121983403#1"/>
    <trip id="241" type="passenger" depart="120.50" from="1318054076#5" to="4453435#4"/>
    <trip id="242" type="passenger" depart="121.00" from="523217748#3" to="8412359#1"/>
    <trip id="243" type="passenger" depart="121.50" from="205674204#5" to="4453433#2"/>
    <trip id="245" type="passenger" depart="122.50" from="-52073595#1" to="-502174128#1"/>
    <trip id="246" type="passenger" depart="123.00" from="231373089#5" to="-1310896019#2"/>
    <trip id="247" type="passenger" depart="123.50" from="1290939474#2" to="4447065#19"/>
    <trip id="248" type="passenger" depart="124.00" from="173285482#0" to="-364792828#2"/>
    <trip id="249" type="passenger" depart="124.50" from="24038185#0" to="-25474003#0"/>
    <trip id="250" type="passenger" depart="125.00" from="4082034#10" to="-1290939474#2"/>
    <trip id="251" type="passenger" depart="125.50" from="161357556#5" to="27600656#0"/>
    <trip id="252" type="passenger" depart="126.00" from="-1310896019#0" to="4444153#6"/>
    <trip id="253" type="passenger" depart="126.50" from="-27089069#0" to="24017627#4"/>
    <trip id="255" type="passenger" depart="127.50" from="-502174128#0" to="122617720#9"/>
    <trip id="256" type="passenger" depart="128.00" from="4472343#1" to="1351892769"/>
    <trip id="257" type="passenger" depart="128.50" from="4453435#3" to="5103458#2"/>
    <trip id="258" type="passenger" depart="129.00" from="-648289150#2" to="-205674204#2"/>
    <trip id="259" type="passenger" depart="129.50" from="-1290939469#0" to="27088860#1"/>
    <trip id="260" type="passenger" depart="130.00" from="977539434#5" to="1310896363#3"/>
    <trip id="261" type="passenger" depart="130.50" from="4444184#2" to="4472356#2"/>
    <trip id="262" type="passenger" depart="131.00" from="4444186#1" to="4453443#0"/>
    <trip id="263" type="passenger" depart="131.50" from="8412356#2" to="-4447074#1"/>
    <trip id="264" type="passenger" depart="132.00" from="-1290939469#1" to="-27619127#1"/>
    <trip id="265" type="passenger" depart="132.50" from="-25474003#0" to="4447063#8"/>
    <trip id="266" type="passenger" depart="133.00" from="27600795#0" to="-502174128#0"/>
    <trip id="267" type="passenger" depart="133.50" from="4447075#2" to="4472350#0"/>
    <trip id="268" type="passenger" depart="134.00" from="-37073509#1" to="364792828#7"/>
    <trip id="269" type="passenger" depart="134.50" from="4453434#1" to="-247113362#4"/>
    <trip id="271" type="passenger" depart="135.50" from="-24016102#8" to="-1290939474#1"/>
    <trip id="272" type="passenger" depart="136.00" from="122617720#0" to="4447065#17"/>
    <trip id="275" type="passenger" depart="137.50" from="4447072#0" to="4082034#4"/>
    <trip id="276" type="passenger" depart="138.00" from="-24016102#16" to="4472352#3"/>
    <trip id="277" type="passenger" depart="138.50" from="52108083#2" to="357248822"/>
    <trip id="278" type="passenger" depart="139.00" from="-25467965#3" to="971402423#0"/>
    <trip id="279" type="passenger" depart="139.50" from="4472356#7" to="1310896363#0"/>
    <trip id="280" type="passenger" depart="140.00" from="208763263#5" to="1320186868#1"/>
    <trip id="281" type="passenger" depart="140.50" from="24038228#8" to="1290939474#0"/>
    <trip id="283" type="passenger" depart="141.50" from="-24016102#5" to="8412368#3"/>
    <trip id="284" type="passenger" depart="142.00" from="4444153#0" to="5103455#1"/>
    <trip id="285" type="passenger" depart="142.50" from="4447087#2" to="231373089#3"/>
    <trip id="286" type="passenger" depart="143.00" from="4450705#3" to="8412462#0"/>
    <trip id="287" type="passenger" depart="143.50" from="-977481198#0" to="4902489#0"/>
    <trip id="289" type="passenger" depart="144.50" from="231373089#5" to="4450704#4"/>
    <trip id="290" type="passenger" depart="145.00" from="-8413384" to="52108083#2"/>
    <trip id="291" type="passenger" depart="145.50" from="5103458#2" to="-231373089#1"/>
    <trip id="292" type="passenger" depart="146.00" from="537495969#0" to="-523217748#2"/>
    <trip id="293" type="passenger" depart="146.50" from="24017881#1" to="37073509#1"/>
    <trip id="294" type="passenger" depart="147.00" from="1353412784#2" to="-1310896019#1"/>
    <trip id="295" type="passenger" depart="147.50" from="523217748#0" to="-4082034#10"/>
    <trip id="296" type="passenger" depart="148.00" from="-502174128#1" to="4472359#3"/>
    <trip id="297" type="passenger" depart="148.50" from="1310896362#1" to="537495962#1"/>
    <trip id="298" type="passenger" depart="149.00" from="4447075#5" to="-977481198#0"/>
    <trip id="299" type="passenger" depart="149.50" from="-122617706#0" to="8412355#2"/>
    <trip id="300" type="passenger" depart="150.00" from="-231373089#2" to="4450699#7"/>
    <trip id="301" type="passenger" depart="150.50" from="24038219#2" to="4463072#0"/>
    <trip id="302" type="passenger" depart="151.00" from="4447072#0" to="4444164#0"/>
    <trip id="303" type="passenger" depart="151.50" from="24038226#0" to="4472358#3"/>
    <trip id="304" type="passenger" depart="152.00" from="-24016058#2" to="-502174128#4"/>
    <trip id="305" type="passenger" depart="152.50" from="4447072#1" to="1219536458#1"/>
    <trip id="306" type="passenger" depart="153.00" from="331451044" to="24038185#12"/>
    <trip id="307" type="passenger" depart="153.50" from="264313540#3" to="208763263#0"/>
    <trip id="308" type="passenger" depart="154.00" from="4453433#2" to="122617737#2"/>
    <trip id="309" type="passenger" depart="154.50" from="4447079#0" to="-648586621#2"/>
    <trip id="310" type="passenger" depart="155.00" from="-648289150#1" to="-25467965#0"/>
    <trip id="311" type="passenger" depart="155.50" from="-4447074#0" to="-25112694#1"/>
    <trip id="312" type="passenger" depart="156.00" from="27088860#2" to="4472336#3"/>
    <trip id="313" type="passenger" depart="156.50" from="-40894522#1" to="-4472371#1"/>
    <trip id="314" type="passenger" depart="157.00" from="24038185#6" to="4450703#3"/>
    <trip id="316" type="passenger" depart="158.00" from="1033801614#2" to="-24016102#12"/>
    <trip id="317" type="passenger" depart="158.50" from="-4447087#0" to="-52073595#1"/>
    <trip id="318" type="passenger" depart="159.00" from="-4082034#3" to="-122617737#0"/>
    <trip id="319" type="passenger" depart="159.50" from="27088860#0" to="-8413384"/>
    <trip id="320" type="passenger" depart="160.00" from="8413390#1" to="27447880#2"/>
    <trip id="321" type="passenger" depart="160.50" from="4447075#0" to="-25468017#3"/>
    <trip id="322" type="passenger" depart="161.00" from="53355676#7" to="24038219#1"/>
    <trip id="323" type="passenger" depart="161.50" from="53746251#2" to="27619127#3"/>
    <trip id="324" type="passenger" depart="162.00" from="24038185#10" to="24016058#0"/>
    <trip id="325" type="passenger" depart="162.50" from="-4082034#9" to="-1320186868#3"/>
    <trip id="326" type="passenger" depart="163.00" from="68951253#0" to="24038185#17"/>
    <trip id="327" type="passenger" depart="163.50" from="5103453#1" to="164286214#5"/>
    <trip id="328" type="passenger" depart="164.00" from="-190909087#1" to="4082034#7"/>
    <trip id="329" type="passenger" depart="164.50" from="-138276753#0" to="-27600674"/>
    <trip id="330" type="passenger" depart="165.00" from="27600723" to="1219536456#1"/>
    <trip id="331" type="passenger" depart="165.50" from="977481198#5" to="-25112694#0"/>
    <trip id="333" type="passenger" depart="166.50" from="4472358#3" to="-519905875#3"/>
    <trip id="334" type="passenger" depart="167.00" from="25468017#1" to="24016102#15"/>
    <trip id="335" type="passenger" depart="167.50" from="24016102#0" to="523389756#2"/>
    <trip id="336" type="passenger" depart="168.00" from="977481198#0" to="1219536458#0"/>
    <trip id="337" type="passenger" depart="168.50" from="4082034#1" to="37073509#0"/>
    <trip id="338" type="passenger" depart="169.00" from="4453431#1" to="8412355#2"/>
    <trip id="339" type="passenger" depart="169.50" from="-4453430#0" to="-4450705#1"/>
    <trip id="340" type="passenger" depart="170.00" from="4444189#4" to="-331451044"/>
    <trip id="341" type="passenger" depart="170.50" from="-378989483#5" to="-173285482#2"/>
    <trip id="342" type="passenger" depart="171.00" from="-1087991825#0" to="24016102#15"/>
    <trip id="343" type="passenger" depart="171.50" from="34849332#2" to="1073043099#1"/>
    <trip id="344" type="passenger" depart="172.00" from="-52073597#3" to="4447087#1"/>
    <trip id="345" type="passenger" depart="172.50" from="4447079#0" to="24016102#5"/>
    <trip id="346" type="passenger" depart="173.00" from="4447068#3" to="648289151#1"/>
    <trip id="347" type="passenger" depart="173.50" from="4472357#5" to="4082034#2"/>
    <trip id="348" type="passenger" depart="174.00" from="4447063#0" to="648489614#1"/>
    <trip id="349" type="passenger" depart="174.50" from="208763263#1" to="27089069#1"/>
    <trip id="350" type="passenger" depart="175.00" from="4444167#1" to="59846917#2"/>
    <trip id="351" type="passenger" depart="175.50" from="5103455#0" to="-164286216#1"/>
    <trip id="352" type="passenger" depart="176.00" from="-370683936" to="122617705#1"/>
    <trip id="353" type="passenger" depart="176.50" from="4453435#0" to="27601236#0"/>
    <trip id="354" type="passenger" depart="177.00" from="1073043102" to="-25468017#1"/>