<additional><vehicle id="veh1" type="car" route="route0" depart="0" /></additional>