<?xml version='1.0' encoding='UTF-8'?>
<routes xmlns:xsi="http://www.w3.org/2001/XMLSchema-instance" xsi:noNamespaceSchemaLocation="http://sumo.dlr.de/xsd/routes_file.xsd">
    <trip id="v0" depart="0.00" from="E1" to="-E0.46" />
    <trip id="v1" depart="0.00" from="E0" to="E00" />
</routes>