<?xml version="1.0" encoding="UTF-8"?>

<!-- generated on 2025-05-06 13:56:06 by Eclipse SUMO netedit Version 1.11.0
<configuration xmlns:xsi="http://www.w3.org/2001/XMLSchema-instance" xsi:noNamespaceSchemaLocation="http://sumo.dlr.de/xsd/netconvertConfiguration.xsd">

    <output>
        <output-file value="/home/veins/Security-agent-in-VANETs-AI-Based-Intrusion-Detection/Configuration/traffic_lights_simulation/traci.net.xml"/>
    </output>

    <processing>
        <offset.disable-normalization value="true"/>
    </processing>

    <junctions>
        <no-turnarounds value="true"/>
    </junctions>

    <report>
        <aggregate-warnings value="5"/>
    </report>

</configuration>
-->

<net version="1.9" junctionCornerDetail="5" limitTurnSpeed="5.50" xmlns:xsi="http://www.w3.org/2001/XMLSchema-instance" xsi:noNamespaceSchemaLocation="http://sumo.dlr.de/xsd/net_file.xsd">

    <location netOffset="0.00,0.00" convBoundary="-41.86,26.03,119.69,96.13" origBoundary="10000000000.00,10000000000.00,-10000000000.00,-10000000000.00" projParameter="!"/>

    <edge id=":J2_0" function="internal">
        <lane id=":J2_0_0" index="0" speed="6.69" length="9.34" shape="40.69,66.55 38.18,66.91 36.37,68.00 35.23,69.80 34.79,72.32"/>
    </edge>
    <edge id=":J2_1" function="internal">
        <lane id=":J2_1_0" index="0" speed="13.89" length="14.56" shape="40.69,66.55 26.13,66.56"/>
    </edge>
    <edge id=":J2_2" function="internal">
        <lane id=":J2_2_0" index="0" speed="7.98" length="5.93" shape="40.69,66.55 36.82,66.00 35.09,64.96"/>
    </edge>
    <edge id=":J2_12" function="internal">
        <lane id=":J2_12_0" index="0" speed="7.98" length="8.32" shape="35.09,64.96 34.07,64.34 32.44,61.57 31.94,57.69"/>
    </edge>
    <edge id=":J2_3" function="internal">
        <lane id=":J2_3_0" index="0" speed="6.48" length="9.03" shape="35.14,57.73 35.46,60.19 36.49,61.95 38.23,63.00 40.69,63.35"/>
    </edge>
    <edge id=":J2_4" function="internal">
        <lane id=":J2_4_0" index="0" speed="13.89" length="14.59" shape="35.14,57.73 34.79,72.32"/>
    </edge>
    <edge id=":J2_5" function="internal">
        <lane id=":J2_5_0" index="0" speed="8.08" length="6.05" shape="35.14,57.73 34.53,61.59 33.41,63.42"/>
    </edge>
    <edge id=":J2_13" function="internal">
        <lane id=":J2_13_0" index="0" speed="8.08" length="8.29" shape="33.41,63.42 32.83,64.35 30.03,66.01 26.13,66.56"/>
    </edge>
    <edge id=":J2_6" function="internal">
        <lane id=":J2_6_0" index="0" speed="6.61" length="9.24" shape="26.13,63.36 28.64,63.01 30.45,61.94 31.55,60.17 31.94,57.69"/>
    </edge>
    <edge id=":J2_7" function="internal">
        <lane id=":J2_7_0" index="0" speed="13.89" length="14.56" shape="26.13,63.36 40.69,63.35"/>
    </edge>
    <edge id=":J2_8" function="internal">
        <lane id=":J2_8_0" index="0" speed="7.94" length="5.94" shape="26.13,63.36 30.03,63.92 31.73,64.96"/>
    </edge>
    <edge id=":J2_14" function="internal">
        <lane id=":J2_14_0" index="0" speed="7.94" length="8.39" shape="31.73,64.96 32.78,65.60 34.37,68.40 34.79,72.32"/>
    </edge>
    <edge id=":J2_9" function="internal">
        <lane id=":J2_9_0" index="0" speed="6.43" length="9.03" shape="31.59,72.21 31.32,69.74 30.32,67.97 28.59,66.92 26.13,66.56"/>
    </edge>
    <edge id=":J2_10" function="internal">
        <lane id=":J2_10_0" index="0" speed="13.89" length="14.53" shape="31.59,72.21 31.94,57.69"/>
    </edge>
    <edge id=":J2_11" function="internal">
        <lane id=":J2_11_0" index="0" speed="8.15" length="5.91" shape="31.59,72.21 32.28,68.34 33.33,66.67"/>
    </edge>
    <edge id=":J2_15" function="internal">
        <lane id=":J2_15_0" index="0" speed="8.15" length="8.46" shape="33.33,66.67 34.02,65.57 36.82,63.91 40.69,63.35"/>
    </edge>

    <edge id="-E0" from="J1" to="J2" priority="-1">
        <lane id="-E0_0" index="0" speed="13.89" length="67.98" shape="-41.86,63.42 26.13,63.36"/>
    </edge>
    <edge id="-E00" from="J2" to="J0" priority="-1">
        <lane id="-E00_0" index="0" speed="13.89" length="79.00" shape="40.69,63.35 119.69,63.29"/>
    </edge>
    <edge id="-E1" from="J2" to="J3" priority="-1">
        <lane id="-E1_0" index="0" speed="13.89" length="23.87" shape="34.79,72.32 33.98,96.18"/>
    </edge>
    <edge id="-E2" from="J4" to="J2" priority="-1">
        <lane id="-E2_0" index="0" speed="13.89" length="31.68" shape="35.58,26.06 35.14,57.73"/>
    </edge>
    <edge id="E0" from="J0" to="J2" priority="-1">
        <lane id="E0_0" index="0" speed="13.89" length="79.00" shape="119.69,66.49 40.69,66.55"/>
    </edge>
    <edge id="E0.86" from="J2" to="J1" priority="-1">
        <lane id="E0.86_0" index="0" speed="13.89" length="67.98" shape="26.13,66.56 -41.85,66.62"/>
    </edge>
    <edge id="E1" from="J3" to="J2" priority="-1">
        <lane id="E1_0" index="0" speed="13.89" length="23.87" shape="30.78,96.07 31.59,72.21"/>
    </edge>
    <edge id="E2" from="J2" to="J4" priority="-1">
        <lane id="E2_0" index="0" speed="13.89" length="31.68" shape="31.94,57.69 32.38,26.01"/>
    </edge>

    <tlLogic id="J2" type="static" programID="0" offset="0">
        <phase duration="4" state="GGgrrrGGgrrr"/>
        <phase duration="3"  state="yyyrrryyyrrr"/>
        <phase duration="4" state="rrrGGgrrrGGg"/>
        <phase duration="3"  state="rrryyyrrryyy"/>
    </tlLogic>

    <junction id="J0" type="dead_end" x="119.69" y="64.89" incLanes="-E00_0" intLanes="" shape="119.69,64.89 119.69,61.69 119.69,64.89"/>
    <junction id="J1" type="dead_end" x="-41.86" y="65.02" incLanes="E0.86_0" intLanes="" shape="-41.86,65.02 -41.85,68.22 -41.86,65.02"/>
    <junction id="J2" type="traffic_light" x="33.44" y="64.96" incLanes="E0_0 -E2_0 -E0_0 E1_0" intLanes=":J2_0_0 :J2_1_0 :J2_12_0 :J2_3_0 :J2_4_0 :J2_13_0 :J2_6_0 :J2_7_0 :J2_14_0 :J2_9_0 :J2_10_0 :J2_15_0" shape="40.69,68.15 40.69,61.75 38.47,61.31 37.70,60.75 37.16,59.98 36.84,58.98 36.74,57.76 30.34,57.67 29.85,59.94 29.26,60.74 28.44,61.31 27.40,61.65 26.13,61.76 26.13,68.16 28.34,68.61 29.10,69.16 29.63,69.94 29.93,70.94 29.99,72.16 36.39,72.38 36.93,70.03 37.54,69.21 38.37,68.62 39.42,68.27">
        <request index="0"  response="000000000000" foes="000100010000" cont="0"/>
        <request index="1"  response="100000100000" foes="111100110000" cont="0"/>
        <request index="2"  response="100011100000" foes="110011110000" cont="1"/>
        <request index="3"  response="000010000000" foes="100010000000" cont="0"/>
        <request index="4"  response="000110000111" foes="100110000111" cont="0"/>
        <request index="5"  response="011110000110" foes="011110000110" cont="1"/>
        <request index="6"  response="000000000000" foes="010000000100" cont="0"/>
        <request index="7"  response="100000100000" foes="110000111100" cont="0"/>
        <request index="8"  response="100000100011" foes="110000110011" cont="1"/>
        <request index="9"  response="000000000010" foes="000000100010" cont="0"/>
        <request index="10" response="000111000110" foes="000111100110" cont="0"/>
        <request index="11" response="000110011110" foes="000110011110" cont="1"/>
    </junction>
    <junction id="J3" type="dead_end" x="32.38" y="96.13" incLanes="-E1_0" intLanes="" shape="32.38,96.13 35.57,96.24 32.38,96.13"/>
    <junction id="J4" type="dead_end" x="33.98" y="26.03" incLanes="E2_0" intLanes="" shape="33.98,26.03 30.78,25.99 33.98,26.03"/>

    <junction id=":J2_12_0" type="internal" x="35.09" y="64.96" incLanes=":J2_2_0 -E0_0" intLanes=":J2_4_0 :J2_5_0 :J2_6_0 :J2_7_0 :J2_10_0 :J2_11_0"/>
    <junction id=":J2_13_0" type="internal" x="33.41" y="63.42" incLanes=":J2_5_0 E1_0" intLanes=":J2_1_0 :J2_2_0 :J2_7_0 :J2_8_0 :J2_9_0 :J2_10_0"/>
    <junction id=":J2_14_0" type="internal" x="31.73" y="64.96" incLanes=":J2_8_0 E0_0" intLanes=":J2_0_0 :J2_1_0 :J2_4_0 :J2_5_0 :J2_10_0 :J2_11_0"/>
    <junction id=":J2_15_0" type="internal" x="33.33" y="66.67" incLanes=":J2_11_0 -E2_0" intLanes=":J2_1_0 :J2_2_0 :J2_3_0 :J2_4_0 :J2_7_0 :J2_8_0"/>

    <connection from="-E0" to="E2" fromLane="0" toLane="0" via=":J2_6_0" tl="J2" linkIndex="6" dir="r" state="O"/>
    <connection from="-E0" to="-E00" fromLane="0" toLane="0" via=":J2_7_0" tl="J2" linkIndex="7" dir="s" state="O"/>
    <connection from="-E0" to="-E1" fromLane="0" toLane="0" via=":J2_8_0" tl="J2" linkIndex="8" dir="l" state="o"/>
    <connection from="-E2" to="-E00" fromLane="0" toLane="0" via=":J2_3_0" tl="J2" linkIndex="3" dir="r" state="o"/>
    <connection from="-E2" to="-E1" fromLane="0" toLane="0" via=":J2_4_0" tl="J2" linkIndex="4" dir="s" state="o"/>
    <connection from="-E2" to="E0.86" fromLane="0" toLane="0" via=":J2_5_0" tl="J2" linkIndex="5" dir="l" state="o"/>
    <connection from="E0" to="-E1" fromLane="0" toLane="0" via=":J2_0_0" tl="J2" linkIndex="0" dir="r" state="O"/>
    <connection from="E0" to="E0.86" fromLane="0" toLane="0" via=":J2_1_0" tl="J2" linkIndex="1" dir="s" state="O"/>
    <connection from="E0" to="E2" fromLane="0" toLane="0" via=":J2_2_0" tl="J2" linkIndex="2" dir="l" state="o"/>
    <connection from="E1" to="E0.86" fromLane="0" toLane="0" via=":J2_9_0" tl="J2" linkIndex="9" dir="r" state="o"/>
    <connection from="E1" to="E2" fromLane="0" toLane="0" via=":J2_10_0" tl="J2" linkIndex="10" dir="s" state="o"/>
    <connection from="E1" to="-E00" fromLane="0" toLane="0" via=":J2_11_0" tl="J2" linkIndex="11" dir="l" state="o"/>

    <connection from=":J2_0" to="-E1" fromLane="0" toLane="0" dir="r" state="M"/>
    <connection from=":J2_1" to="E0.86" fromLane="0" toLane="0" dir="s" state="M"/>
    <connection from=":J2_2" to="E2" fromLane="0" toLane="0" via=":J2_12_0" dir="l" state="m"/>
    <connection from=":J2_12" to="E2" fromLane="0" toLane="0" dir="l" state="M"/>
    <connection from=":J2_3" to="-E00" fromLane="0" toLane="0" dir="r" state="M"/>
    <connection from=":J2_4" to="-E1" fromLane="0" toLane="0" dir="s" state="M"/>
    <connection from=":J2_5" to="E0.86" fromLane="0" toLane="0" via=":J2_13_0" dir="l" state="m"/>
    <connection from=":J2_13" to="E0.86" fromLane="0" toLane="0" dir="l" state="M"/>
    <connection from=":J2_6" to="E2" fromLane="0" toLane="0" dir="r" state="M"/>
    <connection from=":J2_7" to="-E00" fromLane="0" toLane="0" dir="s" state="M"/>
    <connection from=":J2_8" to="-E1" fromLane="0" toLane="0" via=":J2_14_0" dir="l" state="m"/>
    <connection from=":J2_14" to="-E1" fromLane="0" toLane="0" dir="l" state="M"/>
    <connection from=":J2_9" to="E0.86" fromLane="0" toLane="0" dir="r" state="M"/>
    <connection from=":J2_10" to="E2" fromLane="0" toLane="0" dir="s" state="M"/>
    <connection from=":J2_11" to="-E00" fromLane="0" toLane="0" via=":J2_15_0" dir="l" state="m"/>
    <connection from=":J2_15" to="-E00" fromLane="0" toLane="0" dir="l" state="M"/>

</net>
