<configuration>
    <input>
        <net-file value="traci.net.xml"/>
        <route-files value="traci.rou.xml"/>
        <additional-files value="traci_tls.add.xml"/>
    </input>

    <time>
        <begin value="0"/>
        <end value="1000"/>
    </time>
</configuration>
