<?xml version="1.0" encoding="UTF-8"?>

<!-- generated on 2025-05-06 13:40:25 by Eclipse SUMO netedit Version 1.11.0
<configuration xmlns:xsi="http://www.w3.org/2001/XMLSchema-instance" xsi:noNamespaceSchemaLocation="http://sumo.dlr.de/xsd/netconvertConfiguration.xsd">

    <output>
        <output-file value="/home/veins/Security-agent-in-VANETs-AI-Based-Intrusion-Detection/Configuration/traffic_lights_simulation/traci.net.xml"/>
    </output>

    <processing>
        <offset.disable-normalization value="true"/>
    </processing>

    <junctions>
        <no-turnarounds value="true"/>
    </junctions>

    <netedit>
        <route-files value="/home/veins/Security-agent-in-VANETs-AI-Based-Intrusion-Detection/Configuration/traffic_lights_simulation/traci.rou.xml"/>
    </netedit>

    <report>
        <aggregate-warnings value="5"/>
    </report>

</configuration>
-->

<net version="1.9" junctionCornerDetail="5" limitTurnSpeed="5.50" xmlns:xsi="http://www.w3.org/2001/XMLSchema-instance" xsi:noNamespaceSchemaLocation="http://sumo.dlr.de/xsd/net_file.xsd">

    <location netOffset="0.00,0.00" convBoundary="-11.28,40.59,105.94,79.71" origBoundary="10000000000.00,10000000000.00,-10000000000.00,-10000000000.00" projParameter="!"/>

    <edge id=":J0_0" function="internal">
        <lane id=":J0_0_0" index="0" speed="6.08" length="7.49" shape="-6.63,80.92 -8.65,80.62 -10.12,79.76 -11.04,78.32 -11.41,76.32"/>
    </edge>
    <edge id=":J0_1" function="internal">
        <lane id=":J0_1_0" index="0" speed="3.91" length="2.50" shape="-8.21,76.18 -8.09,76.85 -7.78,77.33 -7.29,77.62 -6.62,77.72"/>
    </edge>
    <edge id=":J1_0" function="internal">
        <lane id=":J1_0_0" index="0" speed="6.08" length="7.59" shape="106.43,76.64 106.08,78.68 105.16,80.14 103.67,81.01 101.62,81.30"/>
    </edge>
    <edge id=":J1_1" function="internal">
        <lane id=":J1_1_0" index="0" speed="3.91" length="2.53" shape="101.63,78.10 102.32,78.00 102.81,77.71 103.12,77.23 103.24,76.54"/>
    </edge>
    <edge id=":J2_0" function="internal">
        <lane id=":J2_0_0" index="0" speed="6.07" length="7.93" shape="102.62,39.00 104.79,39.30 106.31,40.23 107.20,41.78 107.44,43.95"/>
    </edge>
    <edge id=":J2_1" function="internal">
        <lane id=":J2_1_0" index="0" speed="3.90" length="2.64" shape="104.24,43.85 104.16,43.12 103.86,42.61 103.36,42.30 102.64,42.20"/>
    </edge>
    <edge id=":J3_0" function="internal">
        <lane id=":J3_0_0" index="0" speed="6.07" length="7.96" shape="-12.74,44.38 -12.52,42.20 -11.65,40.64 -10.13,39.70 -7.96,39.38"/>
    </edge>
    <edge id=":J3_1" function="internal">
        <lane id=":J3_1_0" index="0" speed="3.90" length="2.65" shape="-7.95,42.58 -8.67,42.68 -9.18,43.00 -9.47,43.52 -9.54,44.24"/>
    </edge>
    <edge id=":J4_0" function="internal">
        <lane id=":J4_0_0" index="0" speed="13.89" length="11.22" shape="54.12,42.36 42.90,42.40"/>
    </edge>
    <edge id=":J4_1" function="internal">
        <lane id=":J4_1_0" index="0" speed="13.89" length="11.22" shape="42.89,39.20 54.11,39.16"/>
    </edge>
    <edge id=":J4_2" function="internal">
        <lane id=":J4_2_0" index="0" speed="6.27" length="9.04" shape="48.04,48.14 47.97,45.63 47.09,43.83 45.40,42.75 42.90,42.40"/>
    </edge>
    <edge id=":J4_3" function="internal">
        <lane id=":J4_3_0" index="0" speed="7.69" length="11.86" shape="48.04,48.14 48.81,44.22 50.07,41.42 51.84,39.73 54.11,39.16"/>
    </edge>
    <edge id=":J5_0" function="internal">
        <lane id=":J5_0_0" index="0" speed="13.89" length="10.39" shape="50.01,81.11 39.63,81.08"/>
    </edge>
    <edge id=":J5_1" function="internal">
        <lane id=":J5_1_0" index="0" speed="6.94" length="4.02" shape="50.01,81.11 47.57,80.57 46.50,79.50"/>
    </edge>
    <edge id=":J5_4" function="internal">
        <lane id=":J5_4_0" index="0" speed="6.94" length="7.27" shape="46.50,79.50 45.96,78.97 45.20,76.30 45.26,72.56"/>
    </edge>
    <edge id=":J5_2" function="internal">
        <lane id=":J5_2_0" index="0" speed="6.63" length="8.62" shape="39.64,77.88 41.87,77.55 43.55,76.56 44.68,74.89 45.26,72.56"/>
    </edge>
    <edge id=":J5_3" function="internal">
        <lane id=":J5_3_0" index="0" speed="13.89" length="10.39" shape="39.64,77.88 50.02,77.91"/>
    </edge>

    <edge id="-E0" from="J1" to="J5" priority="-1">
        <lane id="-E0_0" index="0" speed="13.89" length="51.61" shape="101.62,81.30 50.01,81.11"/>
    </edge>
    <edge id="-E00" from="J5" to="J0" priority="-1">
        <lane id="-E00_0" index="0" speed="13.89" length="46.26" shape="39.63,81.08 -6.63,80.92"/>
    </edge>
    <edge id="-E1" from="J2" to="J1" priority="-1">
        <lane id="-E1_0" index="0" speed="13.89" length="32.71" shape="107.44,43.95 106.43,76.64"/>
    </edge>
    <edge id="-E2" from="J3" to="J4" priority="-1">
        <lane id="-E2_0" index="0" speed="13.89" length="50.85" shape="-7.96,39.38 42.89,39.20"/>
    </edge>
    <edge id="-E20" from="J4" to="J2" priority="-1">
        <lane id="-E20_0" index="0" speed="13.89" length="48.51" shape="54.11,39.16 102.62,39.00"/>
    </edge>
    <edge id="-E3" from="J0" to="J3" priority="-1">
        <lane id="-E3_0" index="0" speed="13.89" length="31.97" shape="-11.41,76.32 -12.74,44.38"/>
    </edge>
    <edge id="E0" from="J0" to="J5" priority="-1">
        <lane id="E0_0" index="0" speed="13.89" length="46.26" shape="-6.62,77.72 39.64,77.88"/>
    </edge>
    <edge id="E0.55" from="J5" to="J1" priority="-1">
        <lane id="E0.55_0" index="0" speed="13.89" length="51.61" shape="50.02,77.91 101.63,78.10"/>
    </edge>
    <edge id="E1" from="J1" to="J2" priority="-1">
        <lane id="E1_0" index="0" speed="13.89" length="32.71" shape="103.24,76.54 104.24,43.85"/>
    </edge>
    <edge id="E2" from="J2" to="J4" priority="-1">
        <lane id="E2_0" index="0" speed="13.89" length="48.51" shape="102.64,42.20 54.12,42.36"/>
    </edge>
    <edge id="E2.55" from="J4" to="J3" priority="-1">
        <lane id="E2.55_0" index="0" speed="13.89" length="50.85" shape="42.90,42.40 -7.95,42.58"/>
    </edge>
    <edge id="E3" from="J3" to="J0" priority="-1">
        <lane id="E3_0" index="0" speed="13.89" length="31.97" shape="-9.54,44.24 -8.21,76.18"/>
    </edge>
    <edge id="E4" from="J5" to="J4" priority="-1">
        <lane id="E4_0" index="0" speed="13.89" length="24.57" shape="45.26,72.56 48.04,48.14"/>
    </edge>

    <tlLogic id="J4" type="static" programID="0" offset="0">
        <phase duration="42" state="GGrr"/>
        <phase duration="3"  state="yyrr"/>
        <phase duration="42" state="rrGG"/>
        <phase duration="3"  state="rryy"/>
    </tlLogic>
    <tlLogic id="J5" type="static" programID="0" offset="0">
        <phase duration="82" state="GgGG"/>
        <phase duration="3"  state="yyyy"/>
        <phase duration="5"  state="rrrr"/>
    </tlLogic>

    <junction id="J0" type="priority" x="-9.68" y="79.31" incLanes="-E00_0 E3_0" intLanes=":J0_0_0 :J0_1_0" shape="-6.63,82.52 -6.61,76.12 -13.00,76.38 -12.18,79.78 -11.28,80.97 -10.06,81.83 -8.51,82.34">
        <request index="0" response="00" foes="00" cont="0"/>
        <request index="1" response="00" foes="00" cont="0"/>
    </junction>
    <junction id="J1" type="priority" x="104.74" y="79.71" incLanes="-E1_0 E0.55_0" intLanes=":J1_0_0 :J1_1_0" shape="108.03,76.69 101.64,76.50 101.61,82.90 105.10,82.22 106.33,81.36 107.24,80.15 107.80,78.59">
        <request index="0" response="00" foes="00" cont="0"/>
        <request index="1" response="00" foes="00" cont="0"/>
    </junction>
    <junction id="J2" type="priority" x="105.94" y="40.59" incLanes="-E20_0 E1_0" intLanes=":J2_0_0 :J2_1_0" shape="102.62,37.40 102.64,43.80 109.04,44.00 108.92,41.97 108.42,40.32 107.54,39.04 106.28,38.12 104.64,37.58">
        <request index="0" response="00" foes="00" cont="0"/>
        <request index="1" response="00" foes="00" cont="0"/>
    </junction>
    <junction id="J3" type="priority" x="-11.28" y="40.99" incLanes="-E3_0 E2.55_0" intLanes=":J3_0_0 :J3_1_0" shape="-14.34,44.44 -7.95,44.18 -7.97,37.78 -9.99,37.97 -11.63,38.53 -12.89,39.45 -13.76,40.75 -14.24,42.41">
        <request index="0" response="00" foes="00" cont="0"/>
        <request index="1" response="00" foes="00" cont="0"/>
    </junction>
    <junction id="J4" type="traffic_light" x="50.49" y="40.78" incLanes="E2_0 -E2_0 E4_0" intLanes=":J4_0_0 :J4_1_0 :J4_2_0 :J4_3_0" shape="54.13,43.96 54.11,37.56 42.88,37.60 42.91,44.00 45.08,44.44 45.79,44.99 46.26,45.76 46.48,46.75 46.45,47.96 49.63,48.33 50.35,45.91 51.00,45.06 51.85,44.46 52.89,44.09">
        <request index="0" response="0000" foes="1100" cont="0"/>
        <request index="1" response="0000" foes="1000" cont="0"/>
        <request index="2" response="0001" foes="0001" cont="0"/>
        <request index="3" response="0011" foes="0011" cont="0"/>
    </junction>
    <junction id="J5" type="traffic_light" x="46.08" y="79.50" incLanes="-E0_0 E0_0" intLanes=":J5_0_0 :J5_4_0 :J5_2_0 :J5_3_0" shape="50.01,82.71 50.03,76.31 48.08,75.91 47.44,75.42 47.03,74.72 46.83,73.83 46.85,72.74 43.67,72.38 43.03,74.55 42.44,75.31 41.69,75.85 40.75,76.17 39.65,76.28 39.62,82.68">
        <request index="0" response="0000" foes="0000" cont="0"/>
        <request index="1" response="1100" foes="1100" cont="1"/>
        <request index="2" response="0000" foes="0010" cont="0"/>
        <request index="3" response="0000" foes="0010" cont="0"/>
    </junction>

    <junction id=":J5_4_0" type="internal" x="46.50" y="79.50" incLanes=":J5_1_0 E0_0" intLanes=":J5_2_0 :J5_3_0"/>

    <connection from="-E0" to="-E00" fromLane="0" toLane="0" via=":J5_0_0" tl="J5" linkIndex="0" dir="s" state="O"/>
    <connection from="-E0" to="E4" fromLane="0" toLane="0" via=":J5_1_0" tl="J5" linkIndex="1" dir="l" state="o"/>
    <connection from="-E00" to="-E3" fromLane="0" toLane="0" via=":J0_0_0" dir="l" state="M"/>
    <connection from="-E1" to="-E0" fromLane="0" toLane="0" via=":J1_0_0" dir="l" state="M"/>
    <connection from="-E2" to="-E20" fromLane="0" toLane="0" via=":J4_1_0" tl="J4" linkIndex="1" dir="s" state="O"/>
    <connection from="-E20" to="-E1" fromLane="0" toLane="0" via=":J2_0_0" dir="l" state="M"/>
    <connection from="-E3" to="-E2" fromLane="0" toLane="0" via=":J3_0_0" dir="l" state="M"/>
    <connection from="E0" to="E4" fromLane="0" toLane="0" via=":J5_2_0" tl="J5" linkIndex="2" dir="r" state="O"/>
    <connection from="E0" to="E0.55" fromLane="0" toLane="0" via=":J5_3_0" tl="J5" linkIndex="3" dir="s" state="O"/>
    <connection from="E0.55" to="E1" fromLane="0" toLane="0" via=":J1_1_0" dir="r" state="M"/>
    <connection from="E1" to="E2" fromLane="0" toLane="0" via=":J2_1_0" dir="r" state="M"/>
    <connection from="E2" to="E2.55" fromLane="0" toLane="0" via=":J4_0_0" tl="J4" linkIndex="0" dir="s" state="O"/>
    <connection from="E2.55" to="E3" fromLane="0" toLane="0" via=":J3_1_0" dir="r" state="M"/>
    <connection from="E3" to="E0" fromLane="0" toLane="0" via=":J0_1_0" dir="r" state="M"/>
    <connection from="E4" to="E2.55" fromLane="0" toLane="0" via=":J4_2_0" tl="J4" linkIndex="2" dir="r" state="o"/>
    <connection from="E4" to="-E20" fromLane="0" toLane="0" via=":J4_3_0" tl="J4" linkIndex="3" dir="l" state="o"/>

    <connection from=":J0_0" to="-E3" fromLane="0" toLane="0" dir="l" state="M"/>
    <connection from=":J0_1" to="E0" fromLane="0" toLane="0" dir="r" state="M"/>
    <connection from=":J1_0" to="-E0" fromLane="0" toLane="0" dir="l" state="M"/>
    <connection from=":J1_1" to="E1" fromLane="0" toLane="0" dir="r" state="M"/>
    <connection from=":J2_0" to="-E1" fromLane="0" toLane="0" dir="l" state="M"/>
    <connection from=":J2_1" to="E2" fromLane="0" toLane="0" dir="r" state="M"/>
    <connection from=":J3_0" to="-E2" fromLane="0" toLane="0" dir="l" state="M"/>
    <connection from=":J3_1" to="E3" fromLane="0" toLane="0" dir="r" state="M"/>
    <connection from=":J4_0" to="E2.55" fromLane="0" toLane="0" dir="s" state="M"/>
    <connection from=":J4_1" to="-E20" fromLane="0" toLane="0" dir="s" state="M"/>
    <connection from=":J4_2" to="E2.55" fromLane="0" toLane="0" dir="r" state="M"/>
    <connection from=":J4_3" to="-E20" fromLane="0" toLane="0" dir="l" state="M"/>
    <connection from=":J5_0" to="-E00" fromLane="0" toLane="0" dir="s" state="M"/>
    <connection from=":J5_1" to="E4" fromLane="0" toLane="0" via=":J5_4_0" dir="l" state="m"/>
    <connection from=":J5_4" to="E4" fromLane="0" toLane="0" dir="l" state="M"/>
    <connection from=":J5_2" to="E4" fromLane="0" toLane="0" dir="r" state="M"/>
    <connection from=":J5_3" to="E0.55" fromLane="0" toLane="0" dir="s" state="M"/>

</net>
