<?xml version="1.0" encoding="UTF-8"?>

<!-- generated on 2025-05-12 11:18:01 by Eclipse SUMO netedit Version 1.23.1
-->

<routes xmlns:xsi="http://www.w3.org/2001/XMLSchema-instance" xsi:noNamespaceSchemaLocation="http://sumo.dlr.de/xsd/routes_file.xsd">
    <!-- Vehicles, persons and containers (sorted by depart) -->
    <trip id="v1" depart="0.00" from="E1" to="-E0.52"/>
    <trip id="v2" depart="0.00" from="E0" to="E00"/>
    <trip id="v3" depart="1.00" from="E0" to="-E1"/>
    <trip id="v4" depart="1.00" from="-E0" to="-E1"/>
</routes>
