<?xml version="1.0" encoding="UTF-8"?>

<!-- generated on 2025-05-12 11:18:01 by Eclipse SUMO netedit Version 1.23.1
<neteditConfiguration xmlns:xsi="http://www.w3.org/2001/XMLSchema-instance" xsi:noNamespaceSchemaLocation="http://sumo.dlr.de/xsd/neteditConfiguration.xsd">

    <input>
        <sumocfg-file value="C:\Users\nanem\Security-agent-in-VANETs-AI-Based-Intrusion-Detection\Configuration\Traci simulation\test_simulation\simu.sumocfg"/>
        <sumo-net-file value="C:\Users\nanem\Security-agent-in-VANETs-AI-Based-Intrusion-Detection\Configuration\Traci simulation\test_simulation\simu.net.xml"/>
    </input>

    <output>
        <output-file value="C:\Users\nanem\Security-agent-in-VANETs-AI-Based-Intrusion-Detection\Configuration\Traci simulation\test_simulation\simu.net.xml"/>
    </output>

    <processing>
        <offset.disable-normalization value="true"/>
    </processing>

    <junctions>
        <no-turnarounds value="true"/>
    </junctions>

    <netedit>
        <new-network value="false"/>
    </netedit>

</neteditConfiguration>
-->

<net version="1.20" junctionCornerDetail="5" limitTurnSpeed="5.50" xmlns:xsi="http://www.w3.org/2001/XMLSchema-instance" xsi:noNamespaceSchemaLocation="http://sumo.dlr.de/xsd/net_file.xsd">

    <location netOffset="0.00,0.00" convBoundary="-51.88,-24.31,45.49,11.03" origBoundary="10000000000.00,10000000000.00,-10000000000.00,-10000000000.00" projParameter="!"/>

    <edge id=":J2_0" function="internal">
        <lane id=":J2_0_0" index="0" speed="13.89" length="14.40" shape="0.49,12.16 -13.91,12.02"/>
    </edge>
    <edge id=":J2_1" function="internal">
        <lane id=":J2_1_0" index="0" speed="7.98" length="4.08" shape="0.49,12.16 -3.37,11.57 -3.52,11.48"/>
    </edge>
    <edge id=":J2_6" function="internal">
        <lane id=":J2_6_0" index="0" speed="7.98" length="10.17" shape="-3.52,11.48 -6.11,9.88 -7.70,7.09 -8.16,3.21"/>
    </edge>
    <edge id=":J2_2" function="internal">
        <lane id=":J2_2_0" index="0" speed="6.48" length="9.03" shape="-4.96,3.29 -4.67,5.75 -3.66,7.52 -1.93,8.59 0.52,8.96"/>
    </edge>
    <edge id=":J2_3" function="internal">
        <lane id=":J2_3_0" index="0" speed="8.05" length="14.21" shape="-4.96,3.29 -5.60,7.14 -7.31,9.88 -10.07,11.50 -13.91,12.02"/>
    </edge>
    <edge id=":J2_4" function="internal">
        <lane id=":J2_4_0" index="0" speed="6.56" length="9.10" shape="-13.88,8.82 -11.43,8.49 -9.66,7.44 -8.57,5.68 -8.16,3.21"/>
    </edge>
    <edge id=":J2_5" function="internal">
        <lane id=":J2_5_0" index="0" speed="13.89" length="14.40" shape="-13.88,8.82 0.52,8.96"/>
    </edge>

    <edge id="-E0" from="J1" to="J2" priority="-1">
        <lane id="-E0_0" index="0" speed="13.89" length="44.98" shape="45.47,12.63 0.49,12.16"/>
    </edge>
    <edge id="-E0.52" from="J2" to="J0" priority="-1">
        <lane id="-E0.52_0" index="0" speed="13.89" length="37.99" shape="-13.91,12.02 -51.90,11.62"/>
    </edge>
    <edge id="-E1" from="J2" to="J3" priority="-1">
        <lane id="-E1_0" index="0" speed="13.89" length="27.57" shape="-8.16,3.21 -7.49,-24.35"/>
    </edge>
    <edge id="E0" from="J0" to="J2" priority="-1">
        <lane id="E0_0" index="0" speed="13.89" length="37.99" shape="-51.86,8.43 -13.88,8.82"/>
    </edge>
    <edge id="E00" from="J2" to="J1" priority="-1">
        <lane id="E00_0" index="0" speed="13.89" length="44.98" shape="0.52,8.96 45.51,9.43"/>
    </edge>
    <edge id="E1" from="J3" to="J2" priority="-1">
        <lane id="E1_0" index="0" speed="13.89" length="27.57" shape="-4.29,-24.27 -4.96,3.29"/>
    </edge>

    <tlLogic id="J2" type="static" programID="0" offset="0">
        <phase duration="42" state="GgrrGG"/>
        <phase duration="3"  state="yyrrGy"/>
        <phase duration="42" state="rrGGGr"/>
        <phase duration="3"  state="rryyGr"/>
    </tlLogic>

    <junction id="J0" type="dead_end" x="-51.88" y="10.03" incLanes="-E0.52_0" intLanes="" shape="-51.88,10.03 -51.91,13.22 -51.88,10.03"/>
    <junction id="J1" type="dead_end" x="45.49" y="11.03" incLanes="E00_0" intLanes="" shape="45.49,11.03 45.52,7.83 45.49,11.03"/>
    <junction id="J2" type="traffic_light" x="-6.74" y="10.49" incLanes="-E0_0 E1_0 E0_0" intLanes=":J2_0_0 :J2_6_0 :J2_2_0 :J2_3_0 :J2_4_0 :J2_5_0" shape="0.48,13.76 0.54,7.36 -1.67,6.90 -2.43,6.33 -2.97,5.55 -3.28,4.55 -3.36,3.32 -9.76,3.17 -10.26,5.44 -10.83,6.23 -11.63,6.78 -12.63,7.12 -13.86,7.22 -13.92,13.62">
        <request index="0" response="000000" foes="001000" cont="0"/>
        <request index="1" response="110000" foes="111000" cont="1"/>
        <request index="2" response="100000" foes="100000" cont="0"/>
        <request index="3" response="100011" foes="100011" cont="0"/>
        <request index="4" response="000000" foes="000010" cont="0"/>
        <request index="5" response="000000" foes="001110" cont="0"/>
    </junction>
    <junction id="J3" type="dead_end" x="-5.89" y="-24.31" incLanes="-E1_0" intLanes="" shape="-5.89,-24.31 -9.09,-24.39 -5.89,-24.31"/>

    <junction id=":J2_6_0" type="internal" x="-3.52" y="11.48" incLanes=":J2_1_0 E0_0" intLanes=":J2_3_0 :J2_4_0 :J2_5_0"/>

    <connection from="-E0" to="-E0.52" fromLane="0" toLane="0" via=":J2_0_0" tl="J2" linkIndex="0" dir="s" state="O"/>
    <connection from="-E0" to="-E1" fromLane="0" toLane="0" via=":J2_1_0" tl="J2" linkIndex="1" dir="l" state="o"/>
    <connection from="E0" to="-E1" fromLane="0" toLane="0" via=":J2_4_0" tl="J2" linkIndex="4" dir="r" state="O"/>
    <connection from="E0" to="E00" fromLane="0" toLane="0" via=":J2_5_0" tl="J2" linkIndex="5" dir="s" state="O"/>
    <connection from="E1" to="E00" fromLane="0" toLane="0" via=":J2_2_0" tl="J2" linkIndex="2" dir="r" state="o"/>
    <connection from="E1" to="-E0.52" fromLane="0" toLane="0" via=":J2_3_0" tl="J2" linkIndex="3" dir="l" state="o"/>

    <connection from=":J2_0" to="-E0.52" fromLane="0" toLane="0" dir="s" state="M"/>
    <connection from=":J2_1" to="-E1" fromLane="0" toLane="0" via=":J2_6_0" dir="l" state="m"/>
    <connection from=":J2_6" to="-E1" fromLane="0" toLane="0" dir="l" state="M"/>
    <connection from=":J2_2" to="E00" fromLane="0" toLane="0" dir="r" state="M"/>
    <connection from=":J2_3" to="-E0.52" fromLane="0" toLane="0" dir="l" state="M"/>
    <connection from=":J2_4" to="-E1" fromLane="0" toLane="0" dir="r" state="M"/>
    <connection from=":J2_5" to="E00" fromLane="0" toLane="0" dir="s" state="M"/>

</net>
