<configuration>
  <input>
    <net-file value="map.net.xml"/> 
    <route-files value="map.rou.xml"/> 		
    <additional-files value="map.poly.xml"/>
  </input>
  <time>
    <begin value="0"/>
    <end value="1000"/>
    <step-length value="0.2"/> 
  </time>
  <routing>
    <device.rerouting.probability value="0.0"/>
    <time-to-teleport value="60"/>
  </routing>
  <gui_only>
    <delay value="500"/>
    <gui-settings-file value="osm.view.xml"/>
  </gui_only>
</configuration>
