<?xml version="1.0" encoding="UTF-8"?>

<!-- generated on 2024-09-15 13:17:47 by Eclipse SUMO netedit Version 1.20.0
-->

<routes xmlns:xsi="http://www.w3.org/2001/XMLSchema-instance" xsi:noNamespaceSchemaLocation="http://sumo.dlr.de/xsd/routes_file.xsd">
    <!-- VTypes -->
    <vType id="Bus" vClass="bus" color="23,202,68"/>
    
    <!-- Routes -->
    <route id="R1" edges="96062035 96062056#2 96062128#2 323118884#6 26542535 26542524#4 26542524#5 26542524#6 26542524#0 26542524#1 27916854#0 27916854#1 27916853#0 27916853#2 27916853#3 431789792#0 431789792#1 166173532#6 166173532#1 166173534#0 166173534#1 324890029 103027640#6 694253689 -106792263#1 -106792263#0 252748105 106792260#10 106792260#0 106792260#1 106792260#2 106792260#3 124879310#0 124879310#1 -26433132#2 -26433132#1 103682744 103682735#3 103682735#4 252748101 -26432388 -26432372#15 -26432372#14 -26432372#13 -26432372#12 -26432372#11 -26432372#10 -26432372#9 -26432372#8 -26432372#7 -26432372#6 -26432372#5 -26432372#4 -26432372#2 -26432372#1 26432364#1 26432302#5 26432302#6 26432302#7 26432360#0 26432360#1 26432360#2 26432360#3 26432360#4 -26432271#3 -26432271#2 -26432271#1 -26432271#0 -105894673#1 -105894673#0 694271749#0 694271749#1 105894670#0 105894670#1 252746005 -104314801#8 -104314801#7 -104314801#6 -104314801#5 -104314801#4 -104314801#3 -104314801#2 -104314801#1 -104314801#0 694271756 162896308#5 162896308#6 162896308#7 694271754 -784037547#2 -784037547#1 -784037547#0 784037553 664709113#4 784037549 -104314799 694271760 104314800#1 104314800#2 104314800#3 694271759 -99885068#7 -99885068#5 -99885068#4 -99885068#3 -99885068#2 -99885068#1 -99885068#0 252745990 207972290#1 207972290#2 207972290#3 252745988 -99884353#3 -99884353#2 -99884353#1 99884347 99884346#8 99884346#1 99884351#0 99884351#1 -100045612#9 -100045612#8 -100045612#7 -100045612#6 -100045612#5 -100045612#4 -100045612#2 -100045612#1 100045614#1 100045611#1 100045616 -124642636#5 -124642636#4 -124642636#3 -124642636#2 -124642636#1 -124642636#0 694291068 124642714#4 124642714#5 694291067 -26432041#7 -26432041#6 -26432041#5 -26432041#4 -26432041#3 -26432041#2 -26432041#1 -26432041#0 252745989 124642666#4 124642666#5 252746061 -100037232 28195382 26422675#7 26422675#8 26422675#1 28195385#0 -124881443#20 -124881443#19 -124881443#18 -124881443#17 -124881443#16 -124881443#15 -124881443#14 -124881443#13 -124881443#12 -124881443#10 -124881443#9 -124881443#8 -124881443#7 -124881443#6 -124881443#3 -124881443#2 -124881443#1 -124881443#0 709239250 124881442#1 124881442#2 124881442#3 709239251 -106494237#4 -106494237#3 -106494237#2 -106494237#1 -106494237#0 103430776#1 103430776#2 103430776#3 124537085 124537084#0 27944620#0 27944620#1 -709546492#1 -709546492#0 709546493#0 709546493#1 709546493#3 709546493#5 709546493#6 106493804#0 106493804#1 106493804#2 28168082#0 28168082#1-AddedOnRampEdge 28168082#1 136242041#1 136242041#2 136242041#3 136242041#5 136242041#5-AddedOffRampEdge 136242041#7 136242041#8 136242041#9 760118253#1 760118253#3 760118253#4 760118253#5 -28194859#6 -28194859#5 -28194859#4 -28194859#3 -28194859#2 -28194859#1 -28194859#0 132555173 132555175#1 93621858#0 93621858#1 93621858#2 93621858#3 130896844#5 130896844#1 130896844#2 130896844#3 130896844#4 -93621858#3 -93621858#2 -93621858#1 -93621858#0 -132555175#1 -132555173 28194859#0 28194859#1 28194859#2 28194859#3 28194859#4 28194859#5 28194859#6 150516702#0 150516702#1 150516702#2 150516702#3 150516702#4 150516702#6 760118255#1 760118255#2-AddedOnRampEdge 760118255#2 106494388#1 106494388#2 106494388#3 106494388#4 709546491#1 106493804#4 106494145#0 106494145#1 106494145#3 106494145#5 709546492#0 709546492#1 106494375 124537084#2 124537084#3 124537084#4 117557270 -103430776#3 -103430776#2 -103430776#1 -103430776#0 106494237#1 106494237#2 106494237#3 106494237#4 709239252 124881442#5 124881442#6 124881442#7 709239249 124881443#0 124881443#1 124881443#2 124881443#3 124881443#6 124881443#7 124881443#8 124881443#9 124881443#10 124881443#12 124881443#13 124881443#14 124881443#15 124881443#16 124881443#17 124881443#18 124881443#19 124881443#20 100037233 26422675#3 26422675#4 26422675#5 28195380#0 28195380#1 100037232 252746087 124642666#2 252745997 26432041#0 26432041#1 26432041#2 26432041#3 26432041#4 26432041#5 26432041#6 26432041#7 694291066 124642714#1 124642714#2 694291069 124642636#0 124642636#1 124642636#2 124642636#3 124642636#4 124642636#5 100045615 100045611#3 100045611#4 100045611#5 100045613 100045612#1 100045612#2 100045612#4 100045612#5 100045612#6 100045612#7 100045612#8 100045612#9 99884354 99884346#3 99884346#4 99884346#5 99884346#6 99884349 99884353#1 99884353#2 99884353#3 252745995 207972290#5 207972290#6 207972290#7 252745992 99885068#0 99885068#1 99885068#2 99885068#3 99885068#4 99885068#5 99885068#7 694271758 104314800#5 694271761 104314799 784037548 664709113#1 784037552#0 784037552#1 784037547#0 784037547#1 784037547#2 694271755 162896308#1 162896308#2 162896308#3 694271757 104314801#0 104314801#1 104314801#2 104314801#3 104314801#4 104314801#5 104314801#6 104314801#7 104314801#8 410079729 105894670#3 105894670#4 105894670#5 252746008 105894673#0 105894673#1 105894673#3 26432271#1 26432271#2 26432271#3 26432353#0 26432353#1 26432302#1 26432302#2 26432302#3 26432361#0 26432372#1 26432372#2 26432372#4 26432372#5 26432372#6 26432372#7 26432372#8 26432372#9 26432372#10 26432372#11 26432372#12 26432372#13 26432372#14 26432372#15 26432372#16 252748103 103682735#6 103682735#7 103682735#8 103682735#1 252748102 26433132#1 26433132#2 124879311#0 124879311#1 106792260#5 106792260#6 106792260#7 106792260#8 252748104 106792263#0 106792263#1 694253688#0 694253688#1 103027640#1 103027640#2 103027640#3 103027640#4 103027639 324890028#0 324890028#1 324890028#2 166173532#3 166173532#4 166173533 323118885 323118887#0 641642857#1 -96062128#2 -96062056#2 -96062035 96062035"/>
    <route id="s10d1" edges="709207632 81103713#0 81103713#1 81103713#2">
        <param key="Slope" value="1.5"/>
    </route>
    <route id="s10d2" edges="-81103713#2 -81103713#1 -81103713#0 709207633 124881442#3 124881442#4">
        <param key="Slope" value="-1.5"/>
    </route>
    <route id="s11d1" edges="709239251 -106494237#4 -106494237#3 -106494237#2 -106494237#1 -106494237#0 103430776#1 103430776#2 103430776#3 124537085 124537084#0 27944620#0 27944620#1 -709546492#1 -709546492#0 709546493#0 709546493#1 709546493#3 709546493#5 709546493#6 106493804#0 106493804#1">
        <param key="Slope" value="0.5"/>
    </route>
    <route id="s11d2" edges="106494145#0 106494145#1 106494145#3 106494145#5 709546492#0 709546492#1 106494375 124537084#2 124537084#3 124537084#4 117557270 -103430776#3 -103430776#2 -103430776#1 -103430776#0 106494237#1 106494237#2 106494237#3 106494237#4 709239252 124881442#5 124881442#6">
        <param key="Slope" value="-0.5"/>
    </route>
    <route id="s12d1" edges="106494327 106493957#0 106493957#2">
        <param key="Slope" value="0.8"/>
    </route>
    <route id="s12d2" edges="-106493957#2 -106493957#0 106494234#0 106494234#1 106493804#2 106493804#3">
        <param key="Slope" value="-0.8"/>
    </route>
    <route id="s13d1" edges="28168082#0 28168082#1-AddedOnRampEdge 28168082#1 136242041#1 136242041#2 136242041#3 136242041#5 136242041#5-AddedOffRampEdge 136242041#7 136242041#8 136242041#9 760118253#1 760118253#3 760118253#4 760118253#5 -28194859#6 -28194859#5 -28194859#4 -28194859#3 -28194859#2 -28194859#1 -28194859#0 132555173 132555175#1 93621858#0 93621858#1 93621858#2 93621858#3">
        <param key="Slope" value="1.1"/>
    </route>
	<route id="s13d2" edges="-93621858#3 -93621858#2 -93621858#1 -93621858#0 -132555175#1 -132555173 28194859#0 28194859#1 28194859#2 28194859#3 28194859#4 28194859#5 28194859#6 150516702#0 150516702#1 150516702#2 150516702#3 150516702#4 150516702#6 760118255#1 760118255#2-AddedOnRampEdge 760118255#2 106494388#1 106494388#2 106494388#3 106494388#4 709546491#1 106493804#4 106493804#5">
		<param key="Slope" value="-1.1"/>
    </route>
    <route id="s1d1" edges="26544060 26542524#6 26542524#0 26542524#1 27916854#0 27916854#1 27916853#0 27916853#2 27916853#3 431789792#0 431789792#1 166173532#6 166173532#1 166173534#0 166173534#1 324890029 103027640#6 103027640#7">
        <param key="Slope" value="2.8"/>
    </route>
    <route id="s1d2" edges="103027639 324890028#0 324890028#1 324890028#2 166173532#3 166173532#4 166173533 323118885 323118887#0 323118887#1 26542524#3 26542524#4">
        <param key="Slope" value="-2.8"/>
    </route>
    <route id="s2d1" edges="976973450 -976973447 694253690 103027640#4 103027640#5">
        <param key="Slope" value="2.4"/>
    </route>
    <route id="s2d2" edges="103027640#1 103027640#2 694253691 976973447 976973449">
        <param key="Slope" value="-2.4"/>
    </route>
    <route id="s3d1" edges="694253689 -106792263#1 -106792263#0 252748105 106792260#10 106792260#0 106792260#1 106792260#2 106792260#3 124879310#0 124879310#1 -26433132#2 -26433132#1 103682744 103682735#3 103682735#4 252748101 -26432388 -26432372#15 -26432372#14 -26432372#13 -26432372#12 -26432372#11 -26432372#10 -26432372#9 -26432372#8 -26432372#7 -26432372#6 -26432372#5 -26432372#4 -26432372#2 -26432372#1 26432364#1 26432302#5 26432302#6 26432302#7 26432360#0 26432360#1 26432360#2 26432360#3 26432360#4 -26432271#3 -26432271#2 -26432271#1 -26432271#0 -105894673#1 -105894673#0 694271749#0 694271749#1 105894670#0 105894670#1 252746005 -104314801#8 -104314801#7 -104314801#6 -104314801#5 -104314801#4 -104314801#3 -104314801#2 -104314801#1 -104314801#0 694271756 162896308#5 162896308#6 162896308#7 694271754 -784037547#2 -784037547#1 -784037547#0 784037553 664709113#4 784037549 -104314799 694271760 104314800#1 104314800#2 104314800#3 694271759 -99885068#7 -99885068#5 -99885068#4 -99885068#3 -99885068#2 -99885068#1 -99885068#0 252745990 207972290#1 207972290#2 207972290#3 252745988 -99884353#3 -99884353#2 -99884353#1 99884347 99884346#8 99884346#1 99884351#0 99884351#1 -100045612#9 -100045612#8 -100045612#7 -100045612#6 -100045612#5 -100045612#4 -100045612#2 -100045612#1 100045614#1 100045611#1 100045616 -124642636#5 -124642636#4 -124642636#3 -124642636#2 -124642636#1 -124642636#0 694291068 124642714#4 124642714#5 694291067 -26432041#7 -26432041#6 -26432041#5 -26432041#4 -26432041#3 -26432041#2 -26432041#1 -26432041#0 252745989 124642666#4 124642666#5">
        <param key="Slope" value="0.26"/>
    </route>
    <route id="s3d2" edges="252745997 26432041#0 26432041#1 26432041#2 26432041#3 26432041#4 26432041#5 26432041#6 26432041#7 694291066 124642714#1 124642714#2 694291069 124642636#0 124642636#1 124642636#2 124642636#3 124642636#4 124642636#5 100045615 100045611#3 100045611#4 100045611#5 100045613 100045612#1 100045612#2 100045612#4 100045612#5 100045612#6 100045612#7 100045612#8 100045612#9 99884354 99884346#3 99884346#4 99884346#5 99884346#6 99884349 99884353#1 99884353#2 99884353#3 252745995 207972290#5 207972290#6 207972290#7 252745992 99885068#0 99885068#1 99885068#2 99885068#3 99885068#4 99885068#5 99885068#7 694271758 104314800#5 694271761 104314799 784037548 664709113#1 784037552#0 784037552#1 784037547#0 784037547#1 784037547#2 694271755 162896308#1 162896308#2 162896308#3 694271757 104314801#0 104314801#1 104314801#2 104314801#3 104314801#4 104314801#5 104314801#6 104314801#7 104314801#8 410079729 105894670#3 105894670#4 105894670#5 252746008 105894673#0 105894673#1 105894673#3 26432271#1 26432271#2 26432271#3 26432353#0 26432353#1 26432302#1 26432302#2 26432302#3 26432361#0 26432372#1 26432372#2 26432372#4 26432372#5 26432372#6 26432372#7 26432372#8 26432372#9 26432372#10 26432372#11 26432372#12 26432372#13 26432372#14 26432372#15 26432372#16 252748103 103682735#6 103682735#7 103682735#8 103682735#1 252748102 26433132#1 26433132#2 124879311#0 124879311#1 106792260#5 106792260#6 106792260#7 106792260#8 252748104 106792263#0 106792263#1 694253688#0 694253688#1 103027640#1">
        <param key="Slope" value="-0.26"/>
    </route>
    <route id="s4d1" edges="252745985 -26431280#2 -26431280#1 -26431280#0 26431128 100035793#5">
        <param key="Slope" value="1.8"/>
    </route>
    <route id="s4d2" edges="26431088#1 26431088#2 26431280#0 26431280#1 26431280#2 252745982 124642666#1">
        <param key="Slope" value="-1.8"/>
    </route>
    <route id="s5d1" edges="26411357#0">
        <param key="Slope" value="0.6"/>
    </route>
    <route id="s5d2" edges="103556491#4 103556491#5 103556491#6 103556491#7 100035793#1 100035793#2">
        <param key="Slope" value="-0.6"/>
    </route>
    <route id="s6d1" edges="26422639#0 26422639#1 26422639#2 100035793#4">
        <param key="Slope" value="1.6"/>
    </route>
    <route id="s6d2" edges="26422624#0 26422624#1 26422624#2 26422624#3 26422624#4 26422675#1 26422675#2">
        <param key="Slope" value="-1.6"/>
    </route>
    <route id="s7d1" edges="252746061 -100037232 28195382 26422675#7 26422675#8">
        <param key="Slope" value="1.1"/>
    </route>
    <route id="s7d2" edges="28195380#0 28195380#1 100037232 252746087 124642666#2 124642666#3">
        <param key="Slope" value="-1.1"/>
    </route>
    <route id="s8d1" edges="26422974#8 26423046#1 26422675#5 26422675#6">
        <param key="Slope" value="0.8"/>
    </route>
    <route id="s8d2" edges="26422964 26423040#1">
        <param key="Slope" value="-0.8"/>
    </route>
    <route id="s9d1" edges="28195385#0 -124881443#20 -124881443#19 -124881443#18 -124881443#17 -124881443#16 -124881443#15 -124881443#14 -124881443#13 -124881443#12 -124881443#10 -124881443#9 -124881443#8 -124881443#7 -124881443#6 -124881443#3 -124881443#2 -124881443#1 -124881443#0 709239250 124881442#1 124881442#2">
        <param key="Slope" value="1.2"/>
    </route>
    <route id="s9d2" edges="709239249 124881443#0 124881443#1 124881443#2 124881443#3 124881443#6 124881443#7 124881443#8 124881443#9 124881443#10 124881443#12 124881443#13 124881443#14 124881443#15 124881443#16 124881443#17 124881443#18 124881443#19 124881443#20 100037233 26422675#3 26422675#4">
        <param key="Slope" value="-1.2"/>
    </route>
    <!-- Vehicles, persons and containers (sorted by depart) -->
    
    <vehicle id="bus1" type="Bus" depart="3900.00" personNumber="15" route="R1">
        <param key="passengers" value="10"/>
        <stop parkingArea="pa01" duration="30.00" parking="1">
            <param key="passengers" value="10"/>
        </stop>
		<stop parkingArea="pa1" duration="30.00" parking="1">
            <param key="passengers" value="10"/>
        </stop>
        <stop parkingArea="pa2" duration="30.00" parking="1">
            <param key="passengers" value="10"/>
        </stop>
        <stop parkingArea="pa3" duration="30.00" parking="1">
            <param key="passengers" value="10"/>
        </stop>
        <stop parkingArea="pa4" duration="30.00" parking="1">
            <param key="passengers" value="10"/>
        </stop>
        <stop parkingArea="pa5" duration="30.00" parking="1">
            <param key="passengers" value="10"/>
        </stop>
        <stop parkingArea="pa6" duration="30.00" parking="1">
            <param key="passengers" value="10"/>
        </stop>
        <stop parkingArea="pa7" duration="30.00" parking="1">
            <param key="passengers" value="10"/>
        </stop>
        <stop parkingArea="pa8" duration="30.00" parking="1">
            <param key="passengers" value="10"/>
        </stop>
        <stop parkingArea="pa9" duration="30.00" parking="1">
            <param key="passengers" value="10"/>
        </stop>
        <stop parkingArea="pa10" duration="30.00" parking="1">
            <param key="passengers" value="10"/>
        </stop>
        <stop parkingArea="pa11" duration="30.00" parking="1">
            <param key="passengers" value="10"/>
        </stop>
        <stop parkingArea="pa12" duration="30.00" parking="1">
            <param key="passengers" value="10"/>
        </stop>
        <stop parkingArea="pa13" duration="30.00" parking="1">
            <param key="passengers" value="10"/>
        </stop>
        <stop parkingArea="pa14" duration="30.00" parking="1">
            <param key="passengers" value="10"/>
        </stop>
        <stop parkingArea="pa15" duration="30.00" parking="1">
            <param key="passengers" value="10"/>
        </stop>
        <stop parkingArea="pa16" duration="30.00" parking="1">
            <param key="passengers" value="10"/>
        </stop>
        <stop parkingArea="pa17" duration="30.00" parking="1">
            <param key="passengers" value="10"/>
        </stop>
        <stop parkingArea="pa18" duration="30.00" parking="1">
            <param key="passengers" value="10"/>
        </stop>
        <stop parkingArea="pa19" duration="30.00" parking="1">
            <param key="passengers" value="10"/>
        </stop>
        <stop parkingArea="pa20" duration="30.00" parking="1">
            <param key="passengers" value="10"/>
        </stop>
        <stop parkingArea="pa21" duration="30.00" parking="1">
            <param key="passengers" value="10"/>
        </stop>
        <stop parkingArea="pa22" duration="30.00" parking="1">
            <param key="passengers" value="10"/>
        </stop>
        <stop parkingArea="pa23" duration="30.00" parking="1">
            <param key="passengers" value="10"/>
        </stop>
        <stop parkingArea="pa24" duration="30.00" parking="1">
            <param key="passengers" value="10"/>
        </stop>
        <stop parkingArea="pa25" duration="30.00" parking="1">
            <param key="passengers" value="10"/>
        </stop>
        <stop parkingArea="pa26" duration="30.00" parking="1">
            <param key="passengers" value="10"/>
        </stop>
        <stop parkingArea="pa27" duration="30.00" parking="1">
            <param key="passengers" value="10"/>
        </stop>
        <stop parkingArea="pa28" duration="30.00" parking="1">
            <param key="passengers" value="10"/>
        </stop>
        <stop parkingArea="pa29" duration="30.00" parking="1">
            <param key="passengers" value="10"/>
        </stop>
        <stop parkingArea="pa30" duration="30.00" parking="1">
            <param key="passengers" value="10"/>
        </stop>
        <stop parkingArea="pa31" duration="30.00" parking="1">
            <param key="passengers" value="10"/>
        </stop>
        <stop parkingArea="pa32" duration="30.00" parking="1">
            <param key="passengers" value="10"/>
        </stop>
        <stop parkingArea="pa33" duration="30.00" parking="1">
            <param key="passengers" value="10"/>
        </stop>
        <stop parkingArea="pa34" duration="30.00" parking="1">
            <param key="passengers" value="10"/>
        </stop>
        <stop parkingArea="pa35" duration="30.00" parking="1">
            <param key="passengers" value="10"/>
        </stop>
        <stop parkingArea="pa36" duration="30.00" parking="1">
            <param key="passengers" value="10"/>
        </stop>
        <stop parkingArea="pa37" duration="30.00" parking="1">
            <param key="passengers" value="10"/>
        </stop>
        <stop parkingArea="pa38" duration="30.00" parking="1">
            <param key="passengers" value="10"/>
        </stop>
        <stop parkingArea="pa39" duration="30.00" parking="1">
            <param key="passengers" value="10"/>
        </stop>
        <stop parkingArea="pa40" duration="30.00" parking="1">
            <param key="passengers" value="10"/>
        </stop>
        <stop parkingArea="pa41" duration="30.00" parking="1">
            <param key="passengers" value="10"/>
        </stop>
        <stop parkingArea="pa42" duration="30.00" parking="1">
            <param key="passengers" value="10"/>
        </stop>
        <stop parkingArea="pa43" duration="30.00" parking="1">
            <param key="passengers" value="10"/>
        </stop>
        <stop parkingArea="pa44" duration="30.00" parking="1">
            <param key="passengers" value="10"/>
        </stop>
        <stop parkingArea="pa45" duration="30.00" parking="1">
            <param key="passengers" value="10"/>
        </stop>
        <stop parkingArea="pa46" duration="30.00" parking="1">
            <param key="passengers" value="10"/>
        </stop>
        <stop parkingArea="pa47" duration="30.00" parking="1">
            <param key="passengers" value="10"/>
        </stop>
        <stop parkingArea="pa48" duration="30.00" parking="1">
            <param key="passengers" value="10"/>
        </stop>
        <stop parkingArea="pa49" duration="30.00" parking="1">
            <param key="passengers" value="10"/>
        </stop>
        <stop parkingArea="pa50" duration="30.00" parking="1">
            <param key="passengers" value="10"/>
        </stop>
        <stop parkingArea="pa51" duration="30.00" parking="1">
            <param key="passengers" value="10"/>
        </stop>
        <stop parkingArea="pa52" duration="30.00" parking="1">
            <param key="passengers" value="10"/>
        </stop>
		<stop parkingArea="pa54" duration="30.00" parking="1">
            <param key="passengers" value="10"/>
        </stop>
    </vehicle>
    
</routes>
