<?xml version="1.0" encoding="UTF-8"?>

<!-- generated on 2024-09-25 18:39:09 by Eclipse SUMO netedit Version 1.20.0
<configuration xmlns:xsi="http://www.w3.org/2001/XMLSchema-instance" xsi:noNamespaceSchemaLocation="http://sumo.dlr.de/xsd/neteditConfiguration.xsd">

    <input>
        <sumocfg-file value="C:\Users\othma\OneDrive\Bureau\Code1\code\Data\Sousse Kalaa\Simulations\Unequipped\Conventional\Traffic Traffic lights\osm.sumocfg"/>
        <additional-files value="C:\Users\othma\OneDrive\Bureau\Code1\code\Data\Sousse Kalaa\Simulations\Unequipped\Conventional\Traffic Traffic lights\osm.add.xml"/>
        <route-files value="C:\Users\othma\OneDrive\Bureau\Code1\code\Data\Sousse Kalaa\Simulations\Unequipped\Conventional\Traffic Traffic lights\osm.rou.xml"/>
        <sumo-net-file value="C:\Users\othma\OneDrive\Bureau\Code1\code\Data\Sousse Kalaa\Simulations\Unequipped\Conventional\Traffic Traffic lights\osm.net.xml.gz"/>
    </input>

    <output>
        <output-file value="C:\Users\othma\OneDrive\Bureau\Code1\code\Data\Sousse Kalaa\Simulations\Unequipped\Conventional\Traffic Traffic lights\osm.net.xml.gz"/>
        <output.street-names value="true"/>
    </output>

    <processing>
        <geometry.min-radius.fix.railways value="false"/>
        <geometry.max-grade.fix value="false"/>
        <offset.disable-normalization value="true"/>
        <lefthand value="0"/>
    </processing>

    <junctions>
        <no-turnarounds value="true"/>
        <junctions.corner-detail value="5"/>
        <junctions.limit-turn-speed value="5.50"/>
        <rectangular-lane-cut value="0"/>
    </junctions>

    <pedestrian>
        <walkingareas value="0"/>
    </pedestrian>

</configuration>
-->

<net version="1.20" junctionCornerDetail="5" limitTurnSpeed="5.50" xmlns:xsi="http://www.w3.org/2001/XMLSchema-instance" xsi:noNamespaceSchemaLocation="http://sumo.dlr.de/xsd/net_file.xsd">

    <location netOffset="-1155497.88,-4269237.78" convBoundary="16297.59,7709.14,29112.94,14941.22" origBoundary="10.380014,35.771589,10.678361,35.954603" projParameter="+proj=merc +a=6378137 +b=6378137 +lat_ts=0.0 +lon_0=0.0 +x_0=0.0 +y_0=0 +k=1.0 +units=m +nadgrids=@null +wktext +no_defs"/>

    <type id="highway.footway" priority="1" numLanes="1" speed="2.78" allow="pedestrian" oneway="1" width="2.00"/>
    <type id="highway.primary" priority="12" numLanes="2" speed="27.78" disallow="tram rail_urban rail rail_electric rail_fast ship container cable_car subway aircraft wheelchair scooter drone" oneway="0"/>
    <type id="highway.primary_link" priority="7" numLanes="1" speed="22.22" disallow="tram rail_urban rail rail_electric rail_fast ship container cable_car subway aircraft wheelchair scooter drone" oneway="0"/>
    <type id="highway.residential" priority="3" numLanes="1" speed="13.89" disallow="tram rail_urban rail rail_electric rail_fast ship container cable_car subway aircraft wheelchair scooter drone" oneway="0"/>
    <type id="highway.secondary" priority="11" numLanes="1" speed="27.78" disallow="tram rail_urban rail rail_electric rail_fast ship container cable_car subway aircraft wheelchair scooter drone" oneway="0"/>
    <type id="highway.secondary_link" priority="6" numLanes="1" speed="22.22" disallow="tram rail_urban rail rail_electric rail_fast ship container cable_car subway aircraft wheelchair scooter drone" oneway="0"/>
    <type id="highway.service" priority="1" numLanes="1" speed="5.56" allow="pedestrian delivery bicycle" oneway="0"/>
    <type id="highway.tertiary" priority="10" numLanes="1" speed="22.22" disallow="tram rail_urban rail rail_electric rail_fast ship container cable_car subway aircraft wheelchair scooter drone" oneway="0"/>
    <type id="highway.trunk" priority="13" numLanes="2" speed="27.78" disallow="pedestrian bicycle tram rail_urban rail rail_electric rail_fast ship container cable_car subway aircraft wheelchair scooter drone" oneway="0"/>
    <type id="highway.trunk_link" priority="8" numLanes="1" speed="22.22" disallow="pedestrian bicycle tram rail_urban rail rail_electric rail_fast ship container cable_car subway aircraft wheelchair scooter drone" oneway="0"/>
    <type id="railway.rail" priority="20" numLanes="1" speed="44.44" allow="rail" oneway="1"/>

    <edge id=":10300173853_0" function="internal">
        <lane id=":10300173853_0_0" index="0" disallow="tram rail_urban rail rail_electric rail_fast ship container cable_car subway aircraft wheelchair scooter drone" speed="13.89" length="0.36" shape="27453.77,8845.05 27453.57,8845.43"/>
        <lane id=":10300173853_0_1" index="1" disallow="tram rail_urban rail rail_electric rail_fast ship container cable_car subway aircraft wheelchair scooter drone" speed="13.89" length="0.36" shape="27450.90,8843.62 27450.76,8843.89"/>
    </edge>
    <edge id=":10300173853_2" function="internal">
        <lane id=":10300173853_2_0" index="0" disallow="tram rail_urban rail rail_electric rail_fast ship container cable_car subway aircraft wheelchair scooter drone" speed="13.89" length="0.11" shape="27445.16,8840.80 27445.18,8840.76"/>
        <lane id=":10300173853_2_1" index="1" disallow="tram rail_urban rail rail_electric rail_fast ship container cable_car subway aircraft wheelchair scooter drone" speed="13.89" length="0.11" shape="27447.96,8842.34 27448.04,8842.19"/>
    </edge>
    <edge id=":10807230415_0" function="internal">
        <lane id=":10807230415_0_0" index="0" disallow="tram rail_urban rail rail_electric rail_fast ship container cable_car subway aircraft wheelchair scooter drone" speed="27.78" length="8.21" shape="22641.27,13336.41 22643.52,13337.27 22645.20,13337.51 22646.88,13337.74 22649.13,13338.60"/>
        <lane id=":10807230415_0_1" index="1" disallow="tram rail_urban rail rail_electric rail_fast ship container cable_car subway aircraft wheelchair scooter drone" speed="27.78" length="8.21" shape="22641.27,13336.41 22643.30,13337.72 22644.48,13338.93 22645.66,13340.15 22647.69,13341.45"/>
    </edge>
    <edge id=":10810682058_0" function="internal">
        <lane id=":10810682058_0_0" index="0" disallow="tram rail_urban rail rail_electric rail_fast ship container cable_car subway aircraft wheelchair scooter drone" speed="13.89" length="0.30" shape="23109.25,13351.28 23109.13,13351.55"/>
        <lane id=":10810682058_0_1" index="1" disallow="tram rail_urban rail rail_electric rail_fast ship container cable_car subway aircraft wheelchair scooter drone" speed="13.89" length="0.30" shape="23106.34,13349.95 23106.21,13350.23"/>
    </edge>
    <edge id=":10810682058_2" function="internal">
        <lane id=":10810682058_2_0" index="0" disallow="tram rail_urban rail rail_electric rail_fast ship container cable_car subway aircraft wheelchair scooter drone" speed="13.89" length="0.30" shape="23100.39,13347.58 23100.51,13347.31"/>
        <lane id=":10810682058_2_1" index="1" disallow="tram rail_urban rail rail_electric rail_fast ship container cable_car subway aircraft wheelchair scooter drone" speed="13.89" length="0.30" shape="23103.30,13348.90 23103.42,13348.63"/>
    </edge>
    <edge id=":10810682064_0" function="internal">
        <lane id=":10810682064_0_0" index="0" disallow="tram rail_urban rail rail_electric rail_fast ship container cable_car subway aircraft wheelchair scooter drone" speed="13.89" length="0.30" shape="23094.78,13383.13 23094.66,13383.40"/>
        <lane id=":10810682064_0_1" index="1" disallow="tram rail_urban rail rail_electric rail_fast ship container cable_car subway aircraft wheelchair scooter drone" speed="13.89" length="0.30" shape="23091.87,13381.81 23091.74,13382.08"/>
    </edge>
    <edge id=":10810682064_2" function="internal">
        <lane id=":10810682064_2_0" index="0" disallow="tram rail_urban rail rail_electric rail_fast ship container cable_car subway aircraft wheelchair scooter drone" speed="13.89" length="0.30" shape="23085.92,13379.43 23086.04,13379.16"/>
        <lane id=":10810682064_2_1" index="1" disallow="tram rail_urban rail rail_electric rail_fast ship container cable_car subway aircraft wheelchair scooter drone" speed="13.89" length="0.30" shape="23088.83,13380.75 23088.96,13380.48"/>
    </edge>
    <edge id=":1086259075_0" function="internal">
        <lane id=":1086259075_0_0" index="0" disallow="tram rail_urban rail rail_electric rail_fast ship container cable_car subway aircraft wheelchair scooter drone" speed="7.63" length="7.98" shape="16777.43,13547.07 16775.23,13545.74 16773.26,13544.99 16771.52,13544.83 16770.02,13545.24"/>
    </edge>
    <edge id=":1086259075_1" function="internal">
        <lane id=":1086259075_1_0" index="0" disallow="tram rail_urban rail rail_electric rail_fast ship container cable_car subway aircraft wheelchair scooter drone" speed="9.27" length="13.60" shape="16777.43,13547.07 16774.75,13544.66 16773.06,13541.88 16772.38,13538.74 16772.70,13535.22"/>
    </edge>
    <edge id=":1086259075_2" function="internal">
        <lane id=":1086259075_2_0" index="0" disallow="tram rail_urban rail rail_electric rail_fast ship container cable_car subway aircraft wheelchair scooter drone" speed="8.91" length="8.50" shape="16768.58,13542.38 16769.91,13541.39 16771.04,13539.87 16771.97,13537.81 16772.70,13535.22"/>
    </edge>
    <edge id=":1086259118_0" function="internal">
        <lane id=":1086259118_0_0" index="0" disallow="tram rail_urban rail rail_electric rail_fast ship container cable_car subway aircraft wheelchair scooter drone" speed="4.14" length="1.36" shape="17109.50,13523.56 17109.17,13523.46 17108.84,13523.43 17108.51,13523.48 17108.19,13523.60"/>
        <lane id=":1086259118_0_1" index="1" disallow="tram rail_urban rail rail_electric rail_fast ship container cable_car subway aircraft wheelchair scooter drone" speed="6.53" length="4.07" shape="17110.73,13520.61 17109.73,13520.30 17108.74,13520.22 17107.76,13520.36 17106.78,13520.72"/>
    </edge>
    <edge id=":1086259118_2" function="internal">
        <lane id=":1086259118_2_0" index="0" disallow="tram rail_urban rail rail_electric rail_fast ship container cable_car subway aircraft wheelchair scooter drone" speed="3.65" length="1.34" shape="17110.73,13520.61 17109.99,13519.49"/>
    </edge>
    <edge id=":1086259118_6" function="internal">
        <lane id=":1086259118_6_0" index="0" disallow="tram rail_urban rail rail_electric rail_fast ship container cable_car subway aircraft wheelchair scooter drone" speed="3.65" length="3.33" shape="17109.99,13519.49 17109.93,13519.41 17109.87,13518.51 17110.55,13517.93 17111.96,13517.65"/>
    </edge>
    <edge id=":1086259118_3" function="internal">
        <lane id=":1086259118_3_0" index="0" disallow="tram rail_urban rail rail_electric rail_fast ship container cable_car subway aircraft wheelchair scooter drone" speed="9.67" length="9.50" shape="17103.98,13514.97 17106.26,13514.12 17108.56,13513.80 17110.87,13513.99 17113.19,13514.70"/>
        <lane id=":1086259118_3_1" index="1" disallow="tram rail_urban rail rail_electric rail_fast ship container cable_car subway aircraft wheelchair scooter drone" speed="8.25" length="6.78" shape="17105.38,13517.85 17107.01,13517.24 17108.65,13517.01 17110.30,13517.14 17111.96,13517.65"/>
    </edge>
    <edge id=":1086259118_5" function="internal">
        <lane id=":1086259118_5_0" index="0" disallow="tram rail_urban rail rail_electric rail_fast ship container cable_car subway aircraft wheelchair scooter drone" speed="3.65" length="1.44" shape="17105.38,13517.85 17106.81,13518.04"/>
    </edge>
    <edge id=":1086259118_7" function="internal">
        <lane id=":1086259118_7_0" index="0" disallow="tram rail_urban rail rail_electric rail_fast ship container cable_car subway aircraft wheelchair scooter drone" speed="3.65" length="3.23" shape="17106.81,13518.04 17107.52,13518.58 17107.51,13519.48 17106.78,13520.72"/>
    </edge>
    <edge id=":10909815660_0" function="internal">
        <lane id=":10909815660_0_0" index="0" disallow="tram rail_urban rail rail_electric rail_fast ship container cable_car subway aircraft wheelchair scooter drone" speed="13.89" length="0.30" shape="25317.63,10722.00 25317.39,10721.81"/>
    </edge>
    <edge id=":10909815660_1" function="internal">
        <lane id=":10909815660_1_0" index="0" disallow="tram rail_urban rail rail_electric rail_fast ship container cable_car subway aircraft wheelchair scooter drone" speed="13.89" length="0.30" shape="25319.43,10719.34 25319.67,10719.53"/>
    </edge>
    <edge id=":11006399126_0" function="internal">
        <lane id=":11006399126_0_0" index="0" disallow="tram rail_urban rail rail_electric rail_fast ship container cable_car subway aircraft wheelchair scooter drone" speed="27.78" length="0.10" shape="28306.28,7913.22 28306.28,7913.22"/>
        <lane id=":11006399126_0_1" index="1" disallow="tram rail_urban rail rail_electric rail_fast ship container cable_car subway aircraft wheelchair scooter drone" speed="27.78" length="0.10" shape="28306.58,7916.40 28306.58,7916.40"/>
    </edge>
    <edge id=":11045849102_0" function="internal">
        <lane id=":11045849102_0_0" index="0" disallow="tram rail_urban rail rail_electric rail_fast ship container cable_car subway aircraft wheelchair scooter drone" speed="22.22" length="0.10" shape="24267.97,11883.65 24267.97,11883.65"/>
    </edge>
    <edge id=":1112971935_0" function="internal">
        <lane id=":1112971935_0_0" index="0" speed="5.56" length="9.45" shape="28864.20,7789.77 28862.38,7789.66 28859.33,7789.54 28856.36,7789.60 28854.80,7790.00"/>
    </edge>
    <edge id=":1112971935_1" function="internal">
        <lane id=":1112971935_1_0" index="0" speed="5.56" length="16.98" shape="28864.20,7789.77 28859.09,7788.77 28856.50,7786.62 28856.43,7783.31 28858.88,7778.84"/>
    </edge>
    <edge id=":1112971935_2" function="internal">
        <lane id=":1112971935_2_0" index="0" speed="3.65" length="4.67" shape="28864.20,7789.77 28863.05,7788.89 28862.70,7788.07 28863.16,7787.30 28864.41,7786.58"/>
    </edge>
    <edge id=":1112971935_3" function="internal">
        <lane id=":1112971935_3_0" index="0" speed="3.71" length="4.91" shape="28862.25,7782.16 28864.41,7786.58"/>
    </edge>
    <edge id=":1112971935_4" function="internal">
        <lane id=":1112971935_4_0" index="0" speed="5.56" length="11.06" shape="28862.25,7782.16 28860.91,7782.59 28859.22,7784.04 28857.18,7786.51 28854.80,7790.00"/>
    </edge>
    <edge id=":1112971935_5" function="internal">
        <lane id=":1112971935_5_0" index="0" speed="4.96" length="6.91" shape="28862.25,7782.16 28860.17,7782.59 28858.91,7782.18 28858.48,7780.93 28858.88,7778.84"/>
    </edge>
    <edge id=":1112971935_6" function="internal">
        <lane id=":1112971935_6_0" index="0" speed="5.56" length="11.62" shape="28852.10,7788.27 28858.88,7778.84"/>
    </edge>
    <edge id=":1112971935_7" function="internal">
        <lane id=":1112971935_7_0" index="0" speed="5.56" length="12.72" shape="28852.10,7788.27 28853.45,7787.27 28855.95,7786.65 28859.60,7786.42 28864.41,7786.58"/>
    </edge>
    <edge id=":1112971935_8" function="internal">
        <lane id=":1112971935_8_0" index="0" speed="3.65" length="4.67" shape="28852.10,7788.27 28853.43,7787.69 28854.31,7787.79 28854.77,7788.56 28854.80,7790.00"/>
    </edge>
    <edge id=":1112977054_0" function="internal">
        <lane id=":1112977054_0_0" index="0" speed="5.56" length="14.60" shape="28932.32,7802.68 28928.93,7801.31 28925.42,7800.55 28921.79,7800.17 28918.09,7799.93"/>
    </edge>
    <edge id=":1112977054_1" function="internal">
        <lane id=":1112977054_1_0" index="0" speed="5.56" length="12.07" shape="28932.32,7802.68 28929.51,7800.98 28927.42,7799.22 28925.62,7797.14 28923.68,7794.45"/>
    </edge>
    <edge id=":1112977054_2" function="internal">
        <lane id=":1112977054_2_0" index="0" speed="3.65" length="4.67" shape="28932.32,7802.68 28931.63,7801.41 28931.65,7800.51 28932.38,7799.99 28933.81,7799.85"/>
    </edge>
    <edge id=":1112977054_3" function="internal">
        <lane id=":1112977054_3_0" index="0" speed="5.56" length="10.59" shape="28926.30,7792.62 28928.07,7795.14 28929.48,7796.89 28931.18,7798.31 28933.81,7799.85"/>
    </edge>
    <edge id=":1112977054_4" function="internal">
        <lane id=":1112977054_4_0" index="0" speed="5.56" length="15.73" shape="28926.30,7792.62 28927.96,7796.16 28927.14,7798.56 28923.85,7799.81 28918.09,7799.93"/>
    </edge>
    <edge id=":1112977054_5" function="internal">
        <lane id=":1112977054_5_0" index="0" speed="3.65" length="4.67" shape="28926.30,7792.62 28926.34,7794.06 28925.91,7794.84 28925.03,7794.98 28923.68,7794.45"/>
    </edge>
    <edge id=":1112977054_6" function="internal">
        <lane id=":1112977054_6_0" index="0" speed="4.98" length="7.37" shape="28918.30,7796.73 28921.38,7796.77 28923.31,7796.40 28924.07,7795.63 28923.68,7794.45"/>
    </edge>
    <edge id=":1112977054_7" function="internal">
        <lane id=":1112977054_7_0" index="0" speed="5.56" length="15.93" shape="28918.30,7796.73 28922.20,7797.03 28926.27,7797.54 28930.23,7798.42 28933.81,7799.85"/>
    </edge>
    <edge id=":1112977054_8" function="internal">
        <lane id=":1112977054_8_0" index="0" speed="3.65" length="4.67" shape="28918.30,7796.73 28919.44,7797.61 28919.79,7798.43 28919.34,7799.21 28918.09,7799.93"/>
    </edge>
    <edge id=":1112979066_0" function="internal">
        <lane id=":1112979066_0_0" index="0" speed="5.56" length="9.92" shape="28923.57,7794.29 28921.94,7793.76 28918.83,7793.37 28915.64,7793.13 28913.77,7793.02"/>
    </edge>
    <edge id=":1112979066_1" function="internal">
        <lane id=":1112979066_1_0" index="0" speed="5.56" length="11.12" shape="28923.57,7794.29 28920.90,7790.57 28918.84,7787.91 28917.39,7786.29 28916.55,7785.73"/>
    </edge>
    <edge id=":1112979066_2" function="internal">
        <lane id=":1112979066_2_0" index="0" speed="3.65" length="4.67" shape="28923.57,7794.29 28923.53,7792.85 28923.96,7792.06 28924.84,7791.93 28926.19,7792.45"/>
    </edge>
    <edge id=":1112979066_3" function="internal">
        <lane id=":1112979066_3_0" index="0" speed="5.56" length="11.40" shape="28920.23,7782.78 28921.50,7784.20 28923.37,7787.33 28925.16,7790.60 28926.19,7792.45"/>
    </edge>
    <edge id=":1112979066_4" function="internal">
        <lane id=":1112979066_4_0" index="0" speed="5.25" length="12.11" shape="28920.23,7782.78 28913.77,7793.02"/>
    </edge>
    <edge id=":1112979066_5" function="internal">
        <lane id=":1112979066_5_0" index="0" speed="4.19" length="6.90" shape="28920.23,7782.78 28920.42,7784.90 28919.87,7786.10 28918.58,7786.38 28916.55,7785.73"/>
    </edge>
    <edge id=":1112979066_6" function="internal">
        <lane id=":1112979066_6_0" index="0" speed="3.69" length="4.84" shape="28913.98,7789.83 28916.55,7785.73"/>
    </edge>
    <edge id=":1112979066_7" function="internal">
        <lane id=":1112979066_7_0" index="0" speed="5.56" length="12.65" shape="28913.98,7789.83 28918.82,7790.26 28922.47,7790.84 28924.92,7791.57 28926.19,7792.45"/>
    </edge>
    <edge id=":1112979066_8" function="internal">
        <lane id=":1112979066_8_0" index="0" speed="3.65" length="4.67" shape="28913.98,7789.83 28915.13,7790.71 28915.47,7791.53 28915.02,7792.30 28913.77,7793.02"/>
    </edge>
    <edge id=":11197790292_0" function="internal">
        <lane id=":11197790292_0_0" index="0" disallow="tram rail_urban rail rail_electric rail_fast ship container cable_car subway aircraft wheelchair scooter drone" speed="22.22" length="0.10" shape="27007.66,9409.53 27007.66,9409.53"/>
    </edge>
    <edge id=":11357363855_0" function="internal">
        <lane id=":11357363855_0_0" index="0" disallow="tram rail_urban rail rail_electric rail_fast ship container cable_car subway aircraft wheelchair scooter drone" speed="13.89" length="0.10" shape="27066.80,9284.60 27066.80,9284.60"/>
        <lane id=":11357363855_0_1" index="1" disallow="tram rail_urban rail rail_electric rail_fast ship container cable_car subway aircraft wheelchair scooter drone" speed="13.89" length="0.10" shape="27064.23,9282.69 27064.23,9282.69"/>
    </edge>
    <edge id=":11357363855_2" function="internal">
        <lane id=":11357363855_2_0" index="0" disallow="tram rail_urban rail rail_electric rail_fast ship container cable_car subway aircraft wheelchair scooter drone" speed="13.89" length="0.10" shape="27059.08,9278.88 27059.08,9278.88"/>
        <lane id=":11357363855_2_1" index="1" disallow="tram rail_urban rail rail_electric rail_fast ship container cable_car subway aircraft wheelchair scooter drone" speed="13.89" length="0.10" shape="27061.65,9280.79 27061.65,9280.79"/>
    </edge>
    <edge id=":11357405969_0" function="internal">
        <lane id=":11357405969_0_0" index="0" disallow="tram rail_urban rail rail_electric rail_fast ship container cable_car subway aircraft wheelchair scooter drone" speed="13.89" length="0.30" shape="26829.35,9499.41 26829.09,9499.57"/>
        <lane id=":11357405969_0_1" index="1" disallow="tram rail_urban rail rail_electric rail_fast ship container cable_car subway aircraft wheelchair scooter drone" speed="13.89" length="0.30" shape="26827.69,9496.67 26827.44,9496.83"/>
    </edge>
    <edge id=":11357405969_2" function="internal">
        <lane id=":11357405969_2_0" index="0" disallow="tram rail_urban rail rail_electric rail_fast ship container cable_car subway aircraft wheelchair scooter drone" speed="3.65" length="2.34" shape="26827.69,9496.67 26826.25,9496.61 26825.50,9496.13"/>
    </edge>
    <edge id=":11357405969_6" function="internal">
        <lane id=":11357405969_6_0" index="0" disallow="tram rail_urban rail rail_electric rail_fast ship container cable_car subway aircraft wheelchair scooter drone" speed="3.65" length="2.34" shape="26825.50,9496.13 26825.43,9495.24 26826.04,9493.93"/>
    </edge>
    <edge id=":11357405969_3" function="internal">
        <lane id=":11357405969_3_0" index="0" disallow="tram rail_urban rail rail_electric rail_fast ship container cable_car subway aircraft wheelchair scooter drone" speed="13.89" length="0.30" shape="26824.13,9491.35 26824.39,9491.19"/>
        <lane id=":11357405969_3_1" index="1" disallow="tram rail_urban rail rail_electric rail_fast ship container cable_car subway aircraft wheelchair scooter drone" speed="13.89" length="0.30" shape="26825.79,9494.09 26826.04,9493.93"/>
    </edge>
    <edge id=":11357405969_5" function="internal">
        <lane id=":11357405969_5_0" index="0" disallow="tram rail_urban rail rail_electric rail_fast ship container cable_car subway aircraft wheelchair scooter drone" speed="3.65" length="2.34" shape="26825.79,9494.09 26827.23,9494.15 26827.98,9494.63"/>
    </edge>
    <edge id=":11357405969_7" function="internal">
        <lane id=":11357405969_7_0" index="0" disallow="tram rail_urban rail rail_electric rail_fast ship container cable_car subway aircraft wheelchair scooter drone" speed="3.65" length="2.34" shape="26827.98,9494.63 26828.05,9495.52 26827.44,9496.83"/>
    </edge>
    <edge id=":1141116029_0" function="internal">
        <lane id=":1141116029_0_0" index="0" disallow="tram rail_urban rail rail_electric rail_fast ship container cable_car subway aircraft wheelchair scooter drone" speed="13.89" length="8.37" shape="22325.12,13219.17 22322.68,13218.68 22320.85,13219.10 22319.01,13219.54 22316.55,13219.07"/>
        <lane id=":1141116029_0_1" index="1" disallow="tram rail_urban rail rail_electric rail_fast ship container cable_car subway aircraft wheelchair scooter drone" speed="13.89" length="8.37" shape="22325.12,13219.17 22317.77,13216.11"/>
    </edge>
    <edge id=":1141116029_2" function="internal">
        <lane id=":1141116029_2_0" index="0" disallow="tram rail_urban rail rail_electric rail_fast ship container cable_car subway aircraft wheelchair scooter drone" speed="3.65" length="1.44" shape="22325.12,13219.17 22324.33,13217.97"/>
    </edge>
    <edge id=":1141116029_5" function="internal">
        <lane id=":1141116029_5_0" index="0" disallow="tram rail_urban rail rail_electric rail_fast ship container cable_car subway aircraft wheelchair scooter drone" speed="3.65" length="3.23" shape="22324.33,13217.97 22324.28,13217.08 22324.96,13216.50 22326.37,13216.23"/>
    </edge>
    <edge id=":1141116029_3" function="internal">
        <lane id=":1141116029_3_0" index="0" disallow="tram rail_urban rail rail_electric rail_fast ship container cable_car subway aircraft wheelchair scooter drone" speed="13.89" length="8.84" shape="22320.19,13210.18 22322.28,13211.58 22323.29,13213.19 22324.29,13214.80 22326.37,13216.23"/>
    </edge>
    <edge id=":1141116029_4" function="internal">
        <lane id=":1141116029_4_0" index="0" disallow="tram rail_urban rail rail_electric rail_fast ship container cable_car subway aircraft wheelchair scooter drone" speed="3.65" length="1.44" shape="22318.98,13213.15 22319.79,13214.34"/>
    </edge>
    <edge id=":1141116029_6" function="internal">
        <lane id=":1141116029_6_0" index="0" disallow="tram rail_urban rail rail_electric rail_fast ship container cable_car subway aircraft wheelchair scooter drone" speed="3.65" length="3.23" shape="22319.79,13214.34 22319.85,13215.23 22319.18,13215.82 22317.77,13216.11"/>
    </edge>
    <edge id=":1141135993_0" function="internal">
        <lane id=":1141135993_0_0" index="0" disallow="tram rail_urban rail rail_electric rail_fast ship container cable_car subway aircraft wheelchair scooter drone" speed="13.89" length="0.29" shape="27516.81,8537.45 27516.73,8537.17"/>
    </edge>
    <edge id=":1141135993_1" function="internal">
        <lane id=":1141135993_1_0" index="0" disallow="tram rail_urban rail rail_electric rail_fast ship container cable_car subway aircraft wheelchair scooter drone" speed="3.65" length="2.34" shape="27516.81,8537.45 27517.23,8536.07 27517.88,8535.46"/>
    </edge>
    <edge id=":1141135993_4" function="internal">
        <lane id=":1141135993_4_0" index="0" disallow="tram rail_urban rail rail_electric rail_fast ship container cable_car subway aircraft wheelchair scooter drone" speed="3.65" length="2.34" shape="27517.88,8535.46 27518.76,8535.61 27519.88,8536.53"/>
    </edge>
    <edge id=":1141135993_2" function="internal">
        <lane id=":1141135993_2_0" index="0" disallow="tram rail_urban rail rail_electric rail_fast ship container cable_car subway aircraft wheelchair scooter drone" speed="13.89" length="0.31" shape="27519.79,8536.24 27519.88,8536.53"/>
    </edge>
    <edge id=":1141135993_3" function="internal">
        <lane id=":1141135993_3_0" index="0" disallow="tram rail_urban rail rail_electric rail_fast ship container cable_car subway aircraft wheelchair scooter drone" speed="3.65" length="2.34" shape="27519.79,8536.24 27519.37,8537.62 27518.72,8538.24"/>
    </edge>
    <edge id=":1141135993_5" function="internal">
        <lane id=":1141135993_5_0" index="0" disallow="tram rail_urban rail rail_electric rail_fast ship container cable_car subway aircraft wheelchair scooter drone" speed="3.65" length="2.34" shape="27518.72,8538.24 27517.84,8538.09 27516.73,8537.17"/>
    </edge>
    <edge id=":1154792216_0" function="internal">
        <lane id=":1154792216_0_0" index="0" disallow="tram rail_urban rail rail_electric rail_fast ship container cable_car subway aircraft wheelchair scooter drone" speed="6.45" length="10.71" shape="24354.18,11921.92 24352.28,11924.70 24351.76,11927.09 24352.62,11929.07 24354.86,11930.65"/>
    </edge>
    <edge id=":1154792216_1" function="internal">
        <lane id=":1154792216_1_0" index="0" disallow="tram rail_urban rail rail_electric rail_fast ship container cable_car subway aircraft wheelchair scooter drone" speed="13.89" length="18.04" shape="24354.18,11921.92 24351.11,11925.87 24349.48,11928.91 24348.23,11932.19 24346.29,11936.87"/>
        <lane id=":1154792216_1_1" index="1" disallow="tram rail_urban rail rail_electric rail_fast ship container cable_car subway aircraft wheelchair scooter drone" speed="13.89" length="18.04" shape="24351.76,11919.83 24348.32,11924.24 24346.50,11927.64 24345.09,11931.31 24342.92,11936.54"/>
    </edge>
    <edge id=":1154792216_3" function="internal">
        <lane id=":1154792216_3_0" index="0" disallow="tram rail_urban rail rail_electric rail_fast ship container cable_car subway aircraft wheelchair scooter drone" speed="17.95" length="17.98" shape="24344.21,11918.86 24346.50,11923.75 24347.63,11927.58 24349.38,11930.73 24353.50,11933.55"/>
    </edge>
    <edge id=":1154792216_4" function="internal">
        <lane id=":1154792216_4_0" index="0" disallow="tram rail_urban rail rail_electric rail_fast ship container cable_car subway aircraft wheelchair scooter drone" speed="12.16" length="18.57" shape="24344.21,11918.86 24346.57,11923.57 24347.71,11928.14 24347.61,11932.58 24346.29,11936.87"/>
        <lane id=":1154792216_4_1" index="1" disallow="tram rail_urban rail rail_electric rail_fast ship container cable_car subway aircraft wheelchair scooter drone" speed="10.04" length="18.57" shape="24340.77,11919.84 24343.56,11923.11 24344.85,11926.99 24344.63,11931.46 24342.92,11936.54"/>
    </edge>
    <edge id=":1154792274_0" function="internal">
        <lane id=":1154792274_0_0" index="0" disallow="tram rail_urban rail rail_electric rail_fast ship container cable_car subway aircraft wheelchair scooter drone" speed="6.99" length="6.65" shape="24326.72,11908.39 24327.66,11910.06 24328.78,11911.28 24330.10,11912.06 24331.61,11912.39"/>
    </edge>
    <edge id=":1154792274_1" function="internal">
        <lane id=":1154792274_1_0" index="0" disallow="tram rail_urban rail rail_electric rail_fast ship container cable_car subway aircraft wheelchair scooter drone" speed="13.89" length="7.03" shape="24324.28,11913.37 24326.42,11912.81 24327.91,11912.46 24329.41,11912.32 24331.61,11912.39"/>