<?xml version="1.0" encoding="UTF-8"?>

<!-- generated on 2025-03-04 11:26:35 by Eclipse SUMO netedit Version 1.20.0
<configuration xmlns:xsi="http://www.w3.org/2001/XMLSchema-instance" xsi:noNamespaceSchemaLocation="http://sumo.dlr.de/xsd/neteditConfiguration.xsd">

    <input>
        <sumocfg-file value="C:\Users\othma\OneDrive\Bureau\DRL\STATION AND TL\osm.sumocfg"/>
        <sumo-net-file value="C:\Users\othma\OneDrive\Bureau\DRL\STATION AND TL\osm.net.xml"/>
    </input>

    <output>
        <output-file value="C:\Users\othma\OneDrive\Bureau\DRL\STATION AND TL\osm.net.xml"/>
    </output>

    <processing>
        <offset.disable-normalization value="true"/>
    </processing>

    <junctions>
        <no-turnarounds value="true"/>
    </junctions>

    <netedit>
        <new-network value="false"/>
    </netedit>

</configuration>
-->

<net version="1.20" junctionCornerDetail="5" limitTurnSpeed="5.50" xmlns:xsi="http://www.w3.org/2001/XMLSchema-instance" xsi:noNamespaceSchemaLocation="http://sumo.dlr.de/xsd/net_file.xsd">

    <location netOffset="0.00,0.00" convBoundary="-9.96,5.17,98.82,95.39" origBoundary="10000000000.00,10000000000.00,-10000000000.00,-10000000000.00" projParameter="!"/>

    <edge id=":J1_0" function="internal">
        <lane id=":J1_0_0" index="0" speed="6.52" length="9.02" shape="45.41,49.68 47.86,49.34 49.61,48.29 50.67,46.55 51.04,44.10"/>
    </edge>
    <edge id=":J1_1" function="internal">
        <lane id=":J1_1_0" index="0" speed="13.89" length="11.17" shape="45.41,49.68 56.58,49.71"/>
    </edge>
    <edge id=":J1_2" function="internal">
        <lane id=":J1_2_0" index="0" speed="13.89" length="11.17" shape="50.97,55.27 51.04,44.10"/>
    </edge>
    <edge id=":J1_3" function="internal">
        <lane id=":J1_3_0" index="0" speed="6.51" length="9.02" shape="50.97,55.27 51.33,52.83 52.39,51.09 54.14,50.05 56.58,49.71"/>
    </edge>
    <edge id=":J2_0" function="internal">
        <lane id=":J2_0_0" index="0" speed="13.89" length="0.30" shape="88.32,49.81 88.62,49.81"/>
    </edge>

    <edge id="E0" from="J0" to="J1" priority="-1" length="10.00">
        <lane id="E0_0" index="0" speed="13.89" length="10.00" shape="-9.95,49.58 45.41,49.68"/>
    </edge>
    <edge id="E1" from="J1" to="J2" priority="-1" length="10.00">
        <lane id="E1_0" index="0" speed="13.89" length="0.00" shape="56.58,49.71 88.32,49.81"/>
    </edge>
    <edge id="E2" from="J2" to="J3" priority="-1">
        <lane id="E2_0" index="0" speed="13.89" length="1" shape="88.62,49.81 98.82,49.81"/>
    </edge>
    <edge id="E3" from="J4" to="J1" priority="-1">
        <lane id="E3_0" index="0" speed="13.89" length="40.11" shape="50.76,95.38 50.97,55.27"/>
    </edge>
    <edge id="E4" from="J1" to="J5" priority="-1">
        <lane id="E4_0" index="0" speed="13.89" length="38.94" shape="51.04,44.10 51.32,5.16"/>
    </edge>

    <tlLogic id="J1" type="static" programID="0" offset="0">
        <phase duration="42" state="GGrr"/>
        <phase duration="2"  state="yyrr"/>
        <phase duration="42" state="rrGG"/>
        <phase duration="2"  state="rryy"/>
    </tlLogic>

    <junction id="J0" type="dead_end" x="-9.96" y="51.18" incLanes="" intLanes="" shape="-9.96,51.18 -9.95,47.98"/>
    <junction id="J1" type="traffic_light" x="52.59" y="51.29" incLanes="E0_0 E3_0" intLanes=":J1_0_0 :J1_1_0 :J1_2_0 :J1_3_0" shape="56.58,51.31 56.59,48.11 54.38,47.66 53.61,47.10 53.07,46.33 52.74,45.33 52.64,44.12 49.44,44.09 48.98,46.31 48.42,47.09 47.64,47.64 46.64,47.97 45.41,48.08 45.41,51.28 47.62,51.73 48.39,52.28 48.94,53.06 49.26,54.05 49.37,55.27 52.57,55.28 53.02,53.07 53.58,52.29 54.36,51.74 55.36,51.41">
        <request index="0" response="0000" foes="0100" cont="0"/>
        <request index="1" response="0000" foes="1100" cont="0"/>
        <request index="2" response="0011" foes="0011" cont="0"/>
        <request index="3" response="0010" foes="0010" cont="0"/>
    </junction>
    <junction id="J2" type="priority" x="88.47" y="51.41" incLanes="E1_0" intLanes=":J2_0_0" shape="88.62,51.41 88.62,48.21 88.33,48.21 88.32,51.41">
        <request index="0" response="0" foes="0" cont="0"/>
    </junction>
    <junction id="J3" type="dead_end" x="98.82" y="51.41" incLanes="E2_0" intLanes="" shape="98.82,48.21 98.82,51.41"/>
    <junction id="J4" type="dead_end" x="52.36" y="95.39" incLanes="" intLanes="" shape="52.36,95.39 49.16,95.37"/>
    <junction id="J5" type="dead_end" x="52.92" y="5.17" incLanes="E4_0" intLanes="" shape="49.72,5.15 52.92,5.17"/>

    <connection from="E0" to="E4" fromLane="0" toLane="0" via=":J1_0_0" tl="J1" linkIndex="0" dir="r" state="O"/>
    <connection from="E0" to="E1" fromLane="0" toLane="0" via=":J1_1_0" tl="J1" linkIndex="1" dir="s" state="O"/>
    <connection from="E1" to="E2" fromLane="0" toLane="0" via=":J2_0_0" dir="s" state="M"/>
    <connection from="E3" to="E4" fromLane="0" toLane="0" via=":J1_2_0" tl="J1" linkIndex="2" dir="s" state="o"/>
    <connection from="E3" to="E1" fromLane="0" toLane="0" via=":J1_3_0" tl="J1" linkIndex="3" dir="l" state="o"/>

    <connection from=":J1_0" to="E4" fromLane="0" toLane="0" dir="r" state="M"/>
    <connection from=":J1_1" to="E1" fromLane="0" toLane="0" dir="s" state="M"/>
    <connection from=":J1_2" to="E4" fromLane="0" toLane="0" dir="s" state="M"/>
    <connection from=":J1_3" to="E1" fromLane="0" toLane="0" dir="l" state="M"/>
    <connection from=":J2_0" to="E2" fromLane="0" toLane="0" dir="s" state="M"/>

</net>
