<?xml version="1.0" encoding="UTF-8"?>

<!-- generated on 2025-02-13 12:14:52 by Eclipse SUMO sumo Version 1.20.0
-->

<configuration xmlns:xsi="http://www.w3.org/2001/XMLSchema-instance" xsi:noNamespaceSchemaLocation="http://sumo.dlr.de/xsd/sumoConfiguration.xsd">

    <input>
        <net-file value="osm1.net.xml"/>
        <route-files value="osm1.rou.xml"/>
        <additional-files value="osm1.add.xml"/>
    </input>
	
	 <processing>
        <time-to-teleport value="-1"/>
    </processing>

</configuration>
